/tmp/tmpfnfunti3
  MOE2022           3D

 24 26  0  0  1  0  0  0  0  0999 V2000
   23.5820    8.4880  -16.0590 C   0  0  3  0  0  0  0  0  0  0  0  0
   27.8130   10.2610  -22.4770 C   0  0  0  0  0  0  0  0  0  0  0  0
   27.9680   10.1130  -23.8370 C   0  0  0  0  0  0  0  0  0  0  0  0
   23.9170    8.0320  -20.7220 O   0  0  0  0  0  0  0  0  0  0  0  0
   26.1690    6.6160  -18.1760 C   0  0  0  0  0  0  0  0  0  0  0  0
   27.8420    8.8830  -24.4560 C   0  0  0  0  0  0  0  0  0  0  0  0
   24.5370    8.3480  -17.1940 C   0  0  3  0  0  0  0  0  0  0  0  0
   23.7770    6.2910  -18.1400 O   0  0  0  0  0  0  0  0  0  0  0  0
   23.5610    8.1120  -13.7950 N   0  0  0  0  0  0  0  0  0  0  0  0
   23.9840    9.1280  -14.7210 C   0  0  0  0  0  0  0  0  0  0  0  0
   22.4050    7.3950  -14.3020 C   0  0  0  0  0  0  0  0  0  0  0  0
   26.9150    8.1310  -21.4670 C   0  0  0  0  0  0  0  0  0  0  0  0
   24.9590    8.4000  -20.2120 C   0  0  0  0  0  0  0  0  0  0  0  0
   25.0990    9.4920  -19.3810 N   0  0  0  0  0  0  0  0  0  0  0  0
   24.5130    9.5940  -18.0540 C   0  0  0  0  0  0  0  0  0  0  0  0
   23.3490   10.2900  -14.4860 O   0  0  0  0  0  0  0  0  0  0  0  0
   27.4030    9.4330  -21.4740 C   0  0  0  0  0  0  0  0  0  0  0  0
   24.7330    7.0020  -17.8520 C   0  0  0  0  0  0  0  0  0  0  0  0
   27.5660    7.7190  -23.8120 C   0  0  0  0  0  0  0  0  0  0  0  0
   25.3380    9.3340  -14.6780 O   0  0  0  0  0  0  0  0  0  0  0  0
   22.3670    7.6290  -15.7970 C   0  0  0  0  0  0  0  0  0  0  0  0
   26.3700    6.4410  -19.6800 C   0  0  0  0  0  0  0  0  0  0  0  0
   27.2090    7.3030  -22.5500 C   0  0  0  0  0  0  0  0  0  0  0  0
   26.1220    7.6690  -20.4270 N   0  0  0  0  0  0  0  0  0  0  0  0
  1  7  1  0  0  0  0
  1 10  1  0  0  0  0
  1 21  1  0  0  0  0
  2  3  2  0  0  0  0
  2 17  1  0  0  0  0
  3  6  1  0  0  0  0
  4 13  2  0  0  0  0
  5 18  1  0  0  0  0
  5 22  1  0  0  0  0
  6 19  2  0  0  0  0
  7 15  1  0  0  0  0
  7 18  1  0  0  0  0
  8 18  2  0  0  0  0
  9 10  1  0  0  0  0
  9 11  1  0  0  0  0
 10 16  1  0  0  0  0
 10 20  1  0  0  0  0
 11 21  1  0  0  0  0
 12 17  1  0  0  0  0
 12 23  2  0  0  0  0
 12 24  1  0  0  0  0
 13 14  1  0  0  0  0
 13 24  1  0  0  0  0
 14 15  1  0  0  0  0
 19 23  1  0  0  0  0
 22 24  1  0  0  0  0
M  END
>  <Original_Directory>
2xkd_A_rec_2xke_wi2_lig_tt_min_0_pocket10

>  <Original_Filename>
2xkd_A_rec_2xke_wi2_lig_tt_min_0_pocket10_gen_sample_3.sdf

>  <Molecule_ID>
sample_3

>  <logS>
-1.13142

$$$$