/tmp/tmpheserdxj
  MOE2022           3D

 33 39  0  0  1  0  0  0  0  0999 V2000
   17.2650   36.1420   29.5480 C   0  0  0  0  0  0  0  0  0  0  0  0
   16.9750   36.4130   28.1880 C   0  0  0  0  0  0  0  0  0  0  0  0
   24.0200   30.6620   21.0880 C   0  0  0  0  0  0  0  0  0  0  0  0
   20.2680   33.4850   26.1310 C   0  0  0  0  0  0  0  0  0  0  0  0
   21.6110   31.4560   21.0360 C   0  0  0  0  0  0  0  0  0  0  0  0
   19.0310   35.1350   23.8380 C   0  0  0  0  0  0  0  0  0  0  0  0
   25.3040   30.7200   23.1220 C   0  0  0  0  0  0  0  0  0  0  0  0
   14.2230   37.6950   31.2320 C   0  0  0  0  0  0  0  0  0  0  0  0
   18.4940   35.5480   29.8770 C   0  0  0  0  0  0  0  0  0  0  0  0
   19.4490   35.2660   28.9040 C   0  0  0  0  0  0  0  0  0  0  0  0
   19.1460   35.5050   27.5570 C   0  0  0  0  0  0  0  0  0  0  0  0
   16.3150   36.4660   30.5280 C   0  0  0  0  0  0  0  0  0  0  0  0
   17.9410   33.5770   25.4460 C   0  0  0  0  0  0  0  0  0  0  0  0
   19.4890   32.5620   23.8260 C   0  0  3  0  0  0  0  0  0  0  0  0
   20.3860   31.2750   21.9410 C   0  0  0  0  0  0  0  0  0  0  0  0
   25.1950   30.3900   21.7820 C   0  0  0  0  0  0  0  0  0  0  0  0
   19.2040   32.6840   25.3400 C   0  0  3  0  0  0  0  0  0  0  0  0
   15.1160   37.0770   30.1850 C   0  0  0  0  0  0  0  0  0  0  0  0
   14.7600   37.1590   28.8490 C   0  0  0  0  0  0  0  0  0  0  0  0
   19.3330   30.8700   21.5190 O   0  0  0  0  0  0  0  0  0  0  0  0
   17.9980   36.2250   27.2290 C   0  0  0  0  0  0  0  0  0  0  0  0
   18.2100   37.4650   25.1200 N   0  0  0  0  0  0  0  0  0  0  0  0
   22.9070   31.1490   21.7640 C   0  0  0  0  0  0  0  0  0  0  0  0
   19.2580   33.8450   23.0440 C   0  0  0  0  0  0  0  0  0  0  0  0
   22.9680   31.2880   23.1590 C   0  0  0  0  0  0  0  0  0  0  0  0
   20.5500   31.7480   23.2360 N   0  0  0  0  0  0  0  0  0  0  0  0
   21.6620   31.0470   25.0900 O   0  0  0  0  0  0  0  0  0  0  0  0
   17.7940   36.2060   25.7470 C   0  0  3  0  0  0  0  0  0  0  0  0
   15.7060   36.9200   27.8600 C   0  0  0  0  0  0  0  0  0  0  0  0
   24.1920   31.1820   23.8150 C   0  0  0  0  0  0  0  0  0  0  0  0
   19.7490   34.9210   26.3040 C   0  0  3  0  0  0  0  0  0  0  0  0
   21.6830   31.3590   23.9090 C   0  0  0  0  0  0  0  0  0  0  0  0
   18.5730   34.9600   25.2980 C   0  0  2  0  0  0  0  0  0  0  0  0
  1  2  1  0  0  0  0
  1  9  1  0  0  0  0
  1 12  2  0  0  0  0
  2 21  1  0  0  0  0
  2 29  2  0  0  0  0
  3 16  1  0  0  0  0
  3 23  2  0  0  0  0
  4 17  1  0  0  0  0
  4 31  1  0  0  0  0
  5 15  1  0  0  0  0
  5 23  1  0  0  0  0
  6 24  1  0  0  0  0
  6 33  1  0  0  0  0
  7 16  2  0  0  0  0
  7 30  1  0  0  0  0
  8 18  1  0  0  0  0
  9 10  2  0  0  0  0
 10 11  1  0  0  0  0
 11 21  2  0  0  0  0
 11 31  1  0  0  0  0
 12 18  1  0  0  0  0
 13 17  1  0  0  0  0
 13 33  1  0  0  0  0
 14 17  1  0  0  0  0
 14 24  1  0  0  0  0
 14 26  1  0  0  0  0
 15 20  2  0  0  0  0
 15 26  1  0  0  0  0
 18 19  2  0  0  0  0
 19 29  1  0  0  0  0
 21 28  1  0  0  0  0
 22 28  1  0  0  0  0
 23 25  1  0  0  0  0
 25 30  2  0  0  0  0
 25 32  1  0  0  0  0
 26 32  1  0  0  0  0
 27 32  2  0  0  0  0
 28 33  1  0  0  0  0
 31 33  1  0  0  0  0
M  END
>  <Original_Directory>
5ntn_C_rec_4wlb_3qq_lig_tt_docked_6_pocket10

>  <Original_Filename>
5ntn_C_rec_4wlb_3qq_lig_tt_docked_6_pocket10_gen_sample_13.sdf

>  <Molecule_ID>
sample_13

>  <logS>
-6.9976702

$$$$