/tmp/tmpca6yn_mb
  MOE2022           3D

 23 25  0  0  1  0  0  0  0  0999 V2000
    6.8520  -38.7720   50.8100 O   0  0  0  0  0  0  0  0  0  0  0  0
   10.5170  -35.4320   48.4310 C   0  0  0  0  0  0  0  0  0  0  0  0
    5.3340  -43.4770   54.0870 N   0  0  0  0  0  0  0  0  0  0  0  0
    5.2310  -40.6230   50.8330 C   0  0  0  0  0  0  0  0  0  0  0  0
    6.5270  -41.9240   52.6710 C   0  0  0  0  0  0  0  0  0  0  0  0
    6.4340  -42.7080   53.8580 C   0  0  0  0  0  0  0  0  0  0  0  0
    7.8100  -41.3170   52.4310 C   0  0  0  0  0  0  0  0  0  0  0  0
   10.1070  -36.1550   49.6990 C   0  0  0  0  0  0  0  0  0  0  0  0
    9.2970  -38.1900   50.8470 C   0  0  0  0  0  0  0  0  0  0  0  0
    5.7550  -39.3250   51.4070 C   0  0  0  0  0  0  0  0  0  0  0  0
    4.4090  -44.8990   52.5860 O   0  0  0  0  0  0  0  0  0  0  0  0
    4.1110  -42.5690   52.1280 C   0  0  0  0  0  0  0  0  0  0  0  0
    7.8520  -37.0350   49.0860 C   0  0  0  0  0  0  0  0  0  0  0  0
    4.2420  -43.6790   53.1680 C   0  0  0  0  0  0  0  0  0  0  0  0
    8.4450  -40.4420   51.6400 C   0  0  0  0  0  0  0  0  0  0  0  0
   10.0650  -36.0450   47.1290 C   0  0  0  0  0  0  0  0  0  0  0  0
    8.1660  -39.1280   51.1580 C   0  0  3  0  0  0  0  0  0  0  0  0
    3.0210  -43.6390   53.8500 O   0  0  0  0  0  0  0  0  0  0  0  0
    9.8900  -38.2970   48.3930 C   0  0  0  0  0  0  0  0  0  0  0  0
    5.2980  -38.8370   52.4390 O   0  0  0  0  0  0  0  0  0  0  0  0
    9.2780  -37.4310   49.5110 C   0  0  0  0  0  0  0  0  0  0  0  0
   10.1800  -37.5590   47.0880 C   0  0  0  0  0  0  0  0  0  0  0  0
    5.3130  -41.7360   51.8560 C   0  0  0  0  0  0  0  0  0  0  0  0
  1 10  1  0  0  0  0
  1 17  1  0  0  0  0
  2  8  2  0  0  0  0
  2 16  1  0  0  0  0
  3  6  2  0  0  0  0
  3 14  1  0  0  0  0
  4 10  1  0  0  0  0
  4 23  1  0  0  0  0
  5  6  1  0  0  0  0
  5  7  2  0  0  0  0
  5 23  1  0  0  0  0
  7 15  1  0  0  0  0
  8 21  1  0  0  0  0
  9 17  1  0  0  0  0
  9 21  1  0  0  0  0
 10 20  2  0  0  0  0
 11 14  1  0  0  0  0
 12 14  1  0  0  0  0
 12 23  2  0  0  0  0
 13 21  1  0  0  0  0
 14 18  1  0  0  0  0
 15 17  1  0  0  0  0
 16 22  1  0  0  0  0
 19 21  1  0  0  0  0
 19 22  2  0  0  0  0
M  END
>  <Original_Directory>
5coq_B_rec_4oxk_1s5_lig_tt_min_0_pocket10

>  <Original_Filename>
5coq_B_rec_4oxk_1s5_lig_tt_min_0_pocket10_gen_sample_13.sdf

>  <Molecule_ID>
sample_13

>  <logS>
-2.75453

$$$$