/tmp/tmp54ax2l9c
  MOE2022           3D

 23 27  0  0  1  0  0  0  0  0999 V2000
    9.4960  -40.8020   51.5790 C   0  0  0  0  0  0  0  0  0  0  0  0
    6.7140  -39.9540   51.9860 C   0  0  3  0  0  0  0  0  0  0  0  0
    5.6100  -40.6540   52.7850 C   0  0  3  0  0  0  0  0  0  0  0  0
    4.5080  -39.7810   52.9840 O   0  0  0  0  0  0  0  0  0  0  0  0
    4.7500  -43.5780   49.9360 C   0  0  0  0  0  0  0  0  0  0  0  0
    7.8980  -39.1200   52.4350 C   0  0  0  0  0  0  0  0  0  0  0  0
    8.8950  -36.5520   47.2870 C   0  0  0  0  0  0  0  0  0  0  0  0
    9.1000  -37.9540   49.3240 C   0  0  0  0  0  0  0  0  0  0  0  0
    4.3160  -43.8930   51.2220 C   0  0  0  0  0  0  0  0  0  0  0  0
    8.6480  -39.1500   50.0650 C   0  0  3  0  0  0  0  0  0  0  0  0
    8.3470  -41.6180   51.1670 N   0  0  0  0  0  0  0  0  0  0  0  0
    7.1190  -40.8720   50.8290 C   0  0  2  0  0  0  0  0  0  0  0  0
    8.4040  -37.4190   48.2460 C   0  0  0  0  0  0  0  0  0  0  0  0
   10.3050  -37.4060   49.6970 C   0  0  0  0  0  0  0  0  0  0  0  0
   11.3300  -36.8350   48.9850 C   0  0  0  0  0  0  0  0  0  0  0  0
   11.3180  -36.3340   47.6980 C   0  0  0  0  0  0  0  0  0  0  0  0
    5.5140  -42.5010   49.6150 N   0  0  0  0  0  0  0  0  0  0  0  0
    7.4030  -39.9290   49.6490 C   0  0  0  0  0  0  0  0  0  0  0  0
    9.1060  -39.3230   51.5000 C   0  0  3  0  0  0  0  0  0  0  0  0
   10.1820  -36.2550   46.9090 C   0  0  0  0  0  0  0  0  0  0  0  0
    5.2420  -41.8190   51.9240 C   0  0  0  0  0  0  0  0  0  0  0  0
    5.9560  -41.8060   50.6990 C   0  0  3  0  0  0  0  0  0  0  0  0
    4.5280  -42.9690   52.2480 C   0  0  0  0  0  0  0  0  0  0  0  0
  1 11  1  0  0  0  0
  1 19  1  0  0  0  0
  2  3  1  0  0  0  0
  2  6  1  0  0  0  0
  2 12  1  0  0  0  0
  3  4  1  0  0  0  0
  3 21  1  0  0  0  0
  5  9  2  0  0  0  0
  5 17  1  0  0  0  0
  6 19  1  0  0  0  0
  7 13  1  0  0  0  0
  7 20  2  0  0  0  0
  8 10  1  0  0  0  0
  8 13  1  0  0  0  0
  8 14  2  0  0  0  0
  9 23  1  0  0  0  0
 10 18  1  0  0  0  0
 10 19  1  0  0  0  0
 11 12  1  0  0  0  0
 12 18  1  0  0  0  0
 12 22  1  0  0  0  0
 14 15  1  0  0  0  0
 15 16  2  0  0  0  0
 16 20  1  0  0  0  0
 17 22  1  0  0  0  0
 21 22  1  0  0  0  0
 21 23  2  0  0  0  0
M  END
>  <Original_Directory>
5coq_B_rec_4oxk_1s5_lig_tt_min_0_pocket10

>  <Original_Filename>
5coq_B_rec_4oxk_1s5_lig_tt_min_0_pocket10_gen_sample_15.sdf

>  <Molecule_ID>
sample_15

>  <logS>
-2.4891601

$$$$