/tmp/tmp2jzk47sm
  MOE2022           3D

 10 11  0  0  1  0  0  0  0  0999 V2000
   60.1580   16.3520   26.2650 C   0  0  0  0  0  0  0  0  0  0  0  0
   59.1320   20.0010   25.4760 C   0  0  0  0  0  0  0  0  0  0  0  0
   62.2270   16.5080   27.7140 C   0  0  0  0  0  0  0  0  0  0  0  0
   59.3210   18.5090   25.2400 C   0  0  0  0  0  0  0  0  0  0  0  0
   61.9080   17.9230   27.9640 N   0  0  0  0  0  0  0  0  0  0  0  0
   60.2420   20.6710   26.1670 N   0  0  0  0  0  0  0  0  0  0  0  0
   61.1590   18.5980   26.9080 C   0  0  3  0  0  0  0  0  0  0  0  0
   59.9040   17.8310   26.4840 C   0  0  3  0  0  0  0  0  0  0  0  0
   61.0120   15.6880   27.3350 C   0  0  0  0  0  0  0  0  0  0  0  0
   60.6070   19.9520   27.4040 C   0  0  0  0  0  0  0  0  0  0  0  0
  1  8  1  0  0  0  0
  1  9  1  0  0  0  0
  2  4  1  0  0  0  0
  2  6  1  0  0  0  0
  3  5  1  0  0  0  0
  3  9  1  0  0  0  0
  4  8  1  0  0  0  0
  5  7  1  0  0  0  0
  6 10  1  0  0  0  0
  7  8  1  0  0  0  0
  7 10  1  0  0  0  0
M  END
>  <Original_Directory>
1cb0_A_rec_1cb0_ade_lig_tt_min_0_pocket10

>  <Original_Filename>
1cb0_A_rec_1cb0_ade_lig_tt_min_0_pocket10_gen_sample_19.sdf

>  <Molecule_ID>
sample_19

>  <logS>
-0.10374

$$$$