/tmp/tmpcfz6grsa
  MOE2022           3D

 27 31  0  0  1  0  0  0  0  0999 V2000
   41.7620   31.8400   10.7950 C   0  0  0  0  0  0  0  0  0  0  0  0
   43.7270   32.2470   12.2600 C   0  0  0  0  0  0  0  0  0  0  0  0
   39.6720   33.6620   15.7080 C   0  0  0  0  0  0  0  0  0  0  0  0
   44.2790   31.0440   11.7420 C   0  0  0  0  0  0  0  0  0  0  0  0
   41.1760   33.6840   15.7930 C   0  0  0  0  0  0  0  0  0  0  0  0
   44.4990   35.2370   14.4720 C   0  0  0  0  0  0  0  0  0  0  0  0
   39.2280   34.6570   14.7370 C   0  0  0  0  0  0  0  0  0  0  0  0
   38.6760   37.6490   11.9600 N   0  0  0  0  0  0  0  0  0  0  0  0
   43.5570   30.1930   11.0290 N   0  0  0  0  0  0  0  0  0  0  0  0
   40.1760   36.4210   13.3870 C   0  0  0  0  0  0  0  0  0  0  0  0
   37.7930   35.9650   13.3660 C   0  0  0  0  0  0  0  0  0  0  0  0
   44.4520   33.1230   13.0840 C   0  0  0  0  0  0  0  0  0  0  0  0
   43.8080   35.4890   15.8140 C   0  0  0  0  0  0  0  0  0  0  0  0
   41.7350   33.5280   12.6420 C   0  0  0  0  0  0  0  0  0  0  0  0
   41.7330   36.3660   16.7700 N   0  0  0  0  0  0  0  0  0  0  0  0
   42.3660   35.9000   15.5430 C   0  0  3  0  0  0  0  0  0  0  0  0
   42.3820   34.1730   13.6900 C   0  0  0  0  0  0  0  0  0  0  0  0
   37.9460   34.9410   14.2930 C   0  0  0  0  0  0  0  0  0  0  0  0
   42.1430   30.3630   10.7520 C   0  0  0  0  0  0  0  0  0  0  0  0
   38.8900   36.7100   12.9320 C   0  0  0  0  0  0  0  0  0  0  0  0
   41.8810   29.9120    9.4580 O   0  0  0  0  0  0  0  0  0  0  0  0
   43.7770   34.1650   13.7120 C   0  0  0  0  0  0  0  0  0  0  0  0
   42.4150   32.5530   11.9270 C   0  0  0  0  0  0  0  0  0  0  0  0
   41.4480   29.6370   11.6750 O   0  0  0  0  0  0  0  0  0  0  0  0
   38.9080   32.9520   16.3450 O   0  0  0  0  0  0  0  0  0  0  0  0
   41.5920   34.7940   14.8110 C   0  0  1  0  0  0  0  0  0  0  0  0
   40.3200   35.3670   14.2700 C   0  0  0  0  0  0  0  0  0  0  0  0
  1 19  1  0  0  0  0
  1 23  1  0  0  0  0
  2  4  1  0  0  0  0
  2 12  1  0  0  0  0
  2 23  2  0  0  0  0
  3  5  1  0  0  0  0
  3  7  1  0  0  0  0
  3 25  2  0  0  0  0
  4  9  2  0  0  0  0
  5 26  1  0  0  0  0
  6 13  1  0  0  0  0
  6 22  1  0  0  0  0
  7 18  1  0  0  0  0
  7 27  2  0  0  0  0
  8 20  1  0  0  0  0
  9 19  1  0  0  0  0
 10 20  2  0  0  0  0
 10 27  1  0  0  0  0
 11 18  2  0  0  0  0
 11 20  1  0  0  0  0
 12 22  2  0  0  0  0
 13 16  1  0  0  0  0
 14 17  2  0  0  0  0
 14 23  1  0  0  0  0
 15 16  1  0  0  0  0
 16 26  1  0  0  0  0
 17 22  1  0  0  0  0
 17 26  1  0  0  0  0
 19 21  1  0  0  0  0
 19 24  1  0  0  0  0
 26 27  1  0  0  0  0
M  END
>  <Original_Directory>
3g0c_A_rec_3g0c_ruf_lig_tt_docked_3_pocket10

>  <Original_Filename>
3g0c_A_rec_3g0c_ruf_lig_tt_docked_3_pocket10_gen_sample_13.sdf

>  <Molecule_ID>
sample_13

>  <logS>
-3.0620699

$$$$