/tmp/tmp_mggfqua
  MOE2022           3D

 12 12  0  0  1  0  0  0  0  0999 V2000
  -57.7400   -0.7530  -15.8700 O   0  0  0  0  0  0  0  0  0  0  0  0
  -58.6440    1.2510  -19.3960 N   0  0  0  0  0  0  0  0  0  0  0  0
  -57.0910    0.8990  -17.4600 C   0  0  3  0  0  0  0  0  0  0  0  0
  -57.5320    3.1420  -18.4550 C   0  0  0  0  0  0  0  0  0  0  0  0
  -58.8430   -0.6940  -17.7330 O   0  0  0  0  0  0  0  0  0  0  0  0
  -57.0230    3.4330  -16.0210 C   0  0  0  0  0  0  0  0  0  0  0  0
  -56.2270    2.3360  -15.6950 C   0  0  0  0  0  0  0  0  0  0  0  0
  -56.3770    1.4880  -19.6640 O   0  0  0  0  0  0  0  0  0  0  0  0
  -57.4150    1.6650  -18.7330 C   0  0  2  0  0  0  0  0  0  0  0  0
  -57.4670    3.7680  -17.2930 C   0  0  0  0  0  0  0  0  0  0  0  0
  -57.9550   -0.2280  -16.9750 C   0  0  0  0  0  0  0  0  0  0  0  0
  -56.0180    1.3340  -16.6690 C   0  0  0  0  0  0  0  0  0  0  0  0
  1 11  1  0  0  0  0
  2  9  1  0  0  0  0
  3  9  1  0  0  0  0
  3 11  1  0  0  0  0
  3 12  1  0  0  0  0
  4  9  1  0  0  0  0
  4 10  1  0  0  0  0
  5 11  2  0  0  0  0
  6  7  1  0  0  0  0
  6 10  2  0  0  0  0
  7 12  1  0  0  0  0
  8  9  1  0  0  0  0
M  END
>  <Original_Directory>
1s5m_A_rec_4zbc_fru_lig_tt_docked_14_pocket10

>  <Original_Filename>
1s5m_A_rec_4zbc_fru_lig_tt_docked_14_pocket10_gen_sample_13.sdf

>  <Molecule_ID>
sample_13

>  <logS>
0.17863999

$$$$