/tmp/tmp8ecnrvsv
  MOE2022           3D

 11 12  0  0  1  0  0  0  0  0999 V2000
    3.2730   -4.9810  -11.8250 C   0  0  0  0  0  0  0  0  0  0  0  0
    2.6770   -4.9660  -10.4280 C   0  0  0  0  0  0  0  0  0  0  0  0
    5.5090   -3.9670   -8.1110 C   0  0  0  0  0  0  0  0  0  0  0  0
    5.9300   -3.5650   -9.5250 C   0  0  0  0  0  0  0  0  0  0  0  0
    4.7300   -3.6930  -10.3690 C   0  0  3  0  0  0  0  0  0  0  0  0
    2.2330   -5.5680   -7.2330 N   0  0  0  0  0  0  0  0  0  0  0  0
    3.6810   -4.3180   -9.5510 C   0  0  3  0  0  0  0  0  0  0  0  0
    4.0500   -4.2890   -8.2160 C   0  0  3  0  0  0  0  0  0  0  0  0
    3.8060   -4.5780   -5.8870 N   0  0  0  0  0  0  0  0  0  0  0  0
    3.3640   -4.9140   -7.0820 C   0  0  0  0  0  0  0  0  0  0  0  0
    4.4990   -4.0770  -11.7940 C   0  0  0  0  0  0  0  0  0  0  0  0
  1  2  1  0  0  0  0
  1 11  1  0  0  0  0
  2  7  1  0  0  0  0
  3  4  1  0  0  0  0
  3  8  1  0  0  0  0
  4  5  1  0  0  0  0
  5  7  1  0  0  0  0
  5 11  1  0  0  0  0
  6 10  2  0  0  0  0
  7  8  1  0  0  0  0
  8 10  1  0  0  0  0
  9 10  1  0  0  0  0
M  END
>  <Original_Directory>
2r9p_C_rec_5tp0_brn_lig_tt_min_0_pocket10

>  <Original_Filename>
2r9p_C_rec_5tp0_brn_lig_tt_min_0_pocket10_gen_sample_15.sdf

>  <Molecule_ID>
sample_15

>  <logS>
-2.8527801

$$$$