/tmp/tmpcaei01kw
  MOE2022           3D

 10 10  0  0  0  0  0  0  0  0999 V2000
   27.8040   -2.9780   12.3420 C   0  0  0  0  0  0  0  0  0  0  0  0
   25.9530   -2.3960   10.1810 N   0  0  0  0  0  0  0  0  0  0  0  0
   25.6640   -1.3350   11.0430 C   0  0  0  0  0  0  0  0  0  0  0  0
   27.0580   -3.9190   11.6510 C   0  0  0  0  0  0  0  0  0  0  0  0
   27.6030   -1.6470   12.4700 C   0  0  0  0  0  0  0  0  0  0  0  0
   27.0110   -2.6260    8.1560 O   0  0  0  0  0  0  0  0  0  0  0  0
   26.1370   -3.6740   10.6840 C   0  0  0  0  0  0  0  0  0  0  0  0
   26.4800   -0.9410   12.0670 C   0  0  0  0  0  0  0  0  0  0  0  0
   26.0690   -2.1380    8.8150 C   0  0  0  0  0  0  0  0  0  0  0  0
   25.0860   -1.5960    8.2500 O   0  0  0  0  0  0  0  0  0  0  0  0
  1  4  1  0  0  0  0
  1  5  2  0  0  0  0
  2  3  1  0  0  0  0
  2  7  1  0  0  0  0
  2  9  1  0  0  0  0
  3  8  2  0  0  0  0
  4  7  2  0  0  0  0
  5  8  1  0  0  0  0
  6  9  2  0  0  0  0
  9 10  1  0  0  0  0
M  END
>  <Original_Directory>
2vxn_A_rec_1if2_129_lig_tt_docked_2_pocket10

>  <Original_Filename>
2vxn_A_rec_1if2_129_lig_tt_docked_2_pocket10_gen_sample_3.sdf

>  <Molecule_ID>
sample_3

>  <logS>
-0.52140999

$$$$