/tmp/tmpg2gjb_tq
  MOE2022           3D

 10  9  0  0  1  0  0  0  0  0999 V2000
   26.4770   -2.0550   12.5120 C   0  0  0  0  0  0  0  0  0  0  0  0
   27.7260   -1.9420    9.0050 O   0  0  0  0  0  0  0  0  0  0  0  0
   25.8860   -2.1760   13.6140 O   0  0  0  0  0  0  0  0  0  0  0  0
   26.5750   -3.8670    8.0840 O   0  0  0  0  0  0  0  0  0  0  0  0
   25.3980   -1.7450    8.2870 O   0  0  0  0  0  0  0  0  0  0  0  0
   25.9000   -3.1480   10.4130 C   0  0  3  0  0  0  0  0  0  0  0  0
   24.7950   -4.0030   10.2360 O   0  0  0  0  0  0  0  0  0  0  0  0
   26.4520   -2.6180    8.8260 S   0  0  0  0  0  0  0  0  0  0  0  0
   27.7070   -2.0530   12.3820 O   0  0  0  0  0  0  0  0  0  0  0  0
   25.5920   -1.9460   11.2970 C   0  0  0  0  0  0  0  0  0  0  0  0
  1  3  1  0  0  0  0
  1  9  2  0  0  0  0
  1 10  1  0  0  0  0
  2  8  1  0  0  0  0
  4  8  1  0  0  0  0
  5  8  1  0  0  0  0
  6  7  1  0  0  0  0
  6  8  1  0  0  0  0
  6 10  1  0  0  0  0
M  END
>  <Original_Directory>
2vxn_A_rec_1if2_129_lig_tt_docked_2_pocket10

>  <Original_Filename>
2vxn_A_rec_1if2_129_lig_tt_docked_2_pocket10_gen_sample_15.sdf

>  <Molecule_ID>
sample_15

>  <logS>
0.83296001

$$$$