/tmp/tmpw282a7j9
  MOE2022           3D

  7  6  0  0  0  0  0  0  0  0999 V2000
   43.3760   31.6230   17.3060 O   0  0  0  0  0  0  0  0  0  0  0  0
   42.6250   29.2180   15.4470 O   0  0  0  0  0  0  0  0  0  0  0  0
   41.6610   29.9900   16.2690 P   0  0  0  0  0  0  0  0  0  0  0  0
   42.3640   31.5930   16.5820 C   0  0  0  0  0  0  0  0  0  0  0  0
   40.4660   30.2510   15.3940 O   0  0  0  0  0  0  0  0  0  0  0  0
   41.7980   32.5440   16.0920 O   0  0  0  0  0  0  0  0  0  0  0  0
   41.3210   29.4530   17.6420 O   0  0  0  0  0  0  0  0  0  0  0  0
  1  4  1  0  0  0  0
  2  3  1  0  0  0  0
  3  4  1  0  0  0  0
  3  5  2  0  0  0  0
  3  7  1  0  0  0  0
  4  6  2  0  0  0  0
M  END
>  <Original_Directory>
1za2_A_rec_1sku_mli_lig_tt_min_0_pocket10

>  <Original_Filename>
1za2_A_rec_1sku_mli_lig_tt_min_0_pocket10_gen_sample_19.sdf

>  <Molecule_ID>
sample_19

>  <logS>
1.02718

$$$$