/tmp/tmprs_4bda6
  MOE2022           3D

 20 21  0  0  1  0  0  0  0  0999 V2000
   23.8840   39.8290   16.2190 C   0  0  3  0  0  0  0  0  0  0  0  0
   15.8450   37.2380   16.5000 O   0  0  0  0  0  0  0  0  0  0  0  0
   24.6830   39.8150   15.1110 O   0  0  0  0  0  0  0  0  0  0  0  0
   18.5600   37.7250   16.0790 C   0  0  0  0  0  0  0  0  0  0  0  0
   19.6690   38.5150   16.3700 C   0  0  0  0  0  0  0  0  0  0  0  0
   19.6410   39.8340   16.0860 O   0  0  0  0  0  0  0  0  0  0  0  0
   22.6120   39.1050   16.0430 C   0  0  0  0  0  0  0  0  0  0  0  0
   22.0580   39.1910   14.9390 O   0  0  0  0  0  0  0  0  0  0  0  0
   24.3920   40.2630   17.3950 C   0  0  0  0  0  0  0  0  0  0  0  0
   20.3410   36.8380   17.9350 C   0  0  0  0  0  0  0  0  0  0  0  0
   18.1170   37.5660   14.8110 O   0  0  0  0  0  0  0  0  0  0  0  0
   22.7470   38.0130   18.2680 C   0  0  0  0  0  0  0  0  0  0  0  0
   24.3080   39.8170   18.6370 N   0  0  0  0  0  0  0  0  0  0  0  0
   19.0180   36.4440   18.0350 C   0  0  0  0  0  0  0  0  0  0  0  0
   16.2720   35.9910   18.2640 O   0  0  0  0  0  0  0  0  0  0  0  0
   23.5430   38.8000   19.0410 C   0  0  0  0  0  0  0  0  0  0  0  0
   18.0890   36.9450   17.1270 C   0  0  0  0  0  0  0  0  0  0  0  0
   22.0180   38.4080   17.1560 C   0  0  3  0  0  0  0  0  0  0  0  0
   20.6810   37.9290   17.1350 C   0  0  0  0  0  0  0  0  0  0  0  0
   16.6280   36.7110   17.2990 C   0  0  0  0  0  0  0  0  0  0  0  0
  1  3  1  0  0  0  0
  1  7  1  0  0  0  0
  1  9  1  0  0  0  0
  2 20  2  0  0  0  0
  4  5  1  0  0  0  0
  4 11  1  0  0  0  0
  4 17  2  0  0  0  0
  5  6  1  0  0  0  0
  5 19  2  0  0  0  0
  7  8  2  0  0  0  0
  7 18  1  0  0  0  0
  9 13  2  0  0  0  0
 10 14  2  0  0  0  0
 10 19  1  0  0  0  0
 12 16  1  0  0  0  0
 12 18  1  0  0  0  0
 13 16  1  0  0  0  0
 14 17  1  0  0  0  0
 15 20  1  0  0  0  0
 17 20  1  0  0  0  0
 18 19  1  0  0  0  0
M  END
>  <Original_Directory>
5aqv_A_rec_5aqt_5p7_lig_tt_docked_5_pocket10

>  <Original_Filename>
5aqv_A_rec_5aqt_5p7_lig_tt_docked_5_pocket10_gen_sample_11.sdf

>  <Molecule_ID>
sample_11

>  <logS>
-1.14671

$$$$