/tmp/tmpxl186_17
  MOE2022           3D

 26 28  0  0  1  0  0  0  0  0999 V2000
  -29.3410  -28.0680  -75.5260 C   0  0  0  0  0  0  0  0  0  0  0  0
  -30.7660  -26.8120  -72.2680 C   0  0  0  0  0  0  0  0  0  0  0  0
  -28.3410  -27.2710  -72.5860 C   0  0  3  0  0  0  0  0  0  0  0  0
  -31.0260  -27.7220  -71.2900 C   0  0  0  0  0  0  0  0  0  0  0  0
  -29.1050  -33.9590  -73.1110 O   0  0  0  0  0  0  0  0  0  0  0  0
  -26.2250  -28.0520  -73.9070 C   0  0  3  0  0  0  0  0  0  0  0  0
  -28.9180  -25.6430  -74.9590 C   0  0  0  0  0  0  0  0  0  0  0  0
  -28.2360  -31.9290  -72.2330 C   0  0  0  0  0  0  0  0  0  0  0  0
  -28.5780  -32.7350  -73.3220 C   0  0  0  0  0  0  0  0  0  0  0  0
  -24.8770  -29.9610  -73.8860 O   0  0  0  0  0  0  0  0  0  0  0  0
  -27.0830  -30.4270  -73.7240 N   0  0  0  0  0  0  0  0  0  0  0  0
  -26.6590  -28.0070  -71.1750 O   0  0  0  0  0  0  0  0  0  0  0  0
  -25.5630  -27.5250  -75.1230 C   0  0  0  0  0  0  0  0  0  0  0  0
  -28.3530  -32.2540  -74.6250 C   0  0  0  0  0  0  0  0  0  0  0  0
  -28.8010  -28.1490  -70.2330 C   0  0  3  0  0  0  0  0  0  0  0  0
  -29.3520  -25.2350  -73.5540 C   0  0  0  0  0  0  0  0  0  0  0  0
  -27.5830  -31.1170  -74.8190 C   0  0  0  0  0  0  0  0  0  0  0  0
  -28.3030  -27.0340  -75.0980 C   0  0  3  0  0  0  0  0  0  0  0  0
  -27.8720  -27.8220  -71.3290 C   0  0  0  0  0  0  0  0  0  0  0  0
  -25.2090  -27.6800  -76.2520 N   0  0  0  0  0  0  0  0  0  0  0  0
  -27.6420  -27.5400  -73.8240 C   0  0  3  0  0  0  0  0  0  0  0  0
  -29.5000  -26.4650  -72.7020 C   0  0  3  0  0  0  0  0  0  0  0  0
  -26.0240  -29.5470  -73.8320 C   0  0  0  0  0  0  0  0  0  0  0  0
  -30.1400  -28.2880  -70.4070 C   0  0  0  0  0  0  0  0  0  0  0  0
  -27.6000  -30.7220  -72.4650 C   0  0  0  0  0  0  0  0  0  0  0  0
  -28.2890  -28.3040  -69.0070 O   0  0  0  0  0  0  0  0  0  0  0  0
  1 18  1  0  0  0  0
  2  4  1  0  0  0  0
  2 22  1  0  0  0  0
  3 19  1  0  0  0  0
  3 21  1  0  0  0  0
  3 22  1  0  0  0  0
  4 24  2  0  0  0  0
  5  9  1  0  0  0  0
  6 13  1  0  0  0  0
  6 21  1  0  0  0  0
  6 23  1  0  0  0  0
  7 16  1  0  0  0  0
  7 18  1  0  0  0  0
  8  9  1  0  0  0  0
  8 25  2  0  0  0  0
  9 14  2  0  0  0  0
 10 23  2  0  0  0  0
 11 17  1  0  0  0  0
 11 23  1  0  0  0  0
 11 25  1  0  0  0  0
 12 19  2  0  0  0  0
 13 20  2  0  0  0  0
 14 17  1  0  0  0  0
 15 19  1  0  0  0  0
 15 24  1  0  0  0  0
 15 26  1  0  0  0  0
 16 22  1  0  0  0  0
 18 21  1  0  0  0  0
M  END
>  <Original_Directory>
4cbt_B_rec_2vqm_ha3_lig_tt_min_0_pocket10

>  <Original_Filename>
4cbt_B_rec_2vqm_ha3_lig_tt_min_0_pocket10_gen_sample_15.sdf

>  <Molecule_ID>
sample_15

>  <logS>
-3.3459201

$$$$