/tmp/tmp6pf4bpxj
  MOE2022           3D

 16 18  0  0  1  0  0  0  0  0999 V2000
   -1.3560    2.0820   11.5570 C   0  0  0  0  0  0  0  0  0  0  0  0
   -6.4230   -1.1470    9.5250 C   0  0  3  0  0  0  0  0  0  0  0  0
   -5.1380   -1.4680    9.5380 N   0  0  0  0  0  0  0  0  0  0  0  0
   -7.8760   -2.7490    8.5960 O   0  0  0  0  0  0  0  0  0  0  0  0
   -4.4820    0.3700   10.9580 C   0  0  3  0  0  0  0  0  0  0  0  0
   -5.9440    0.8060   11.1110 C   0  0  0  0  0  0  0  0  0  0  0  0
   -1.1830    1.4210   10.2090 C   0  0  3  0  0  0  0  0  0  0  0  0
   -2.7710    1.8140   12.0170 C   0  0  0  0  0  0  0  0  0  0  0  0
   -7.3360   -0.9910    7.3610 O   0  0  0  0  0  0  0  0  0  0  0  0
   -4.3180   -0.2860    9.5930 C   0  0  3  0  0  0  0  0  0  0  0  0
   -0.5780    2.3660    9.3140 O   0  0  0  0  0  0  0  0  0  0  0  0
   -7.2790   -1.6670    8.4060 C   0  0  0  0  0  0  0  0  0  0  0  0
   -6.9530   -0.1970   10.5650 C   0  0  0  0  0  0  0  0  0  0  0  0
   -2.8200   -0.2730    9.3580 C   0  0  0  0  0  0  0  0  0  0  0  0
   -2.5930    1.2100    9.6520 C   0  0  3  0  0  0  0  0  0  0  0  0
   -3.5850    1.6010   10.7510 C   0  0  3  0  0  0  0  0  0  0  0  0
  1  7  1  0  0  0  0
  1  8  1  0  0  0  0
  2  3  1  0  0  0  0
  2 12  1  0  0  0  0
  2 13  1  0  0  0  0
  3 10  1  0  0  0  0
  4 12  1  0  0  0  0
  5  6  1  0  0  0  0
  5 10  1  0  0  0  0
  5 16  1  0  0  0  0
  6 13  1  0  0  0  0
  7 11  1  0  0  0  0
  7 15  1  0  0  0  0
  8 16  1  0  0  0  0
  9 12  2  0  0  0  0
 10 14  1  0  0  0  0
 14 15  1  0  0  0  0
 15 16  1  0  0  0  0
M  END
>  <Original_Directory>
3wz6_A_rec_4y5c_47v_lig_tt_docked_19_pocket10

>  <Original_Filename>
3wz6_A_rec_4y5c_47v_lig_tt_docked_19_pocket10_gen_sample_13.sdf

>  <Molecule_ID>
sample_13

>  <logS>
-0.83513999

$$$$