/tmp/tmp0z0b5zec
  MOE2022           3D

 25 29  0  0  1  0  0  0  0  0999 V2000
   34.6080   -8.8500  -19.2040 C   0  0  0  0  0  0  0  0  0  0  0  0
   30.3220  -12.0470  -24.5920 C   0  0  0  0  0  0  0  0  0  0  0  0
   32.1320  -10.7130  -23.8410 C   0  0  3  0  0  0  0  0  0  0  0  0
   34.1090   -9.6500  -22.7480 N   0  0  0  0  0  0  0  0  0  0  0  0
   35.8210  -11.3920  -24.0910 C   0  0  0  0  0  0  0  0  0  0  0  0
   34.4600  -11.6810  -23.9190 C   0  0  3  0  0  0  0  0  0  0  0  0
   29.5810  -10.8980  -24.9320 O   0  0  0  0  0  0  0  0  0  0  0  0
   29.8440  -13.1330  -25.3660 O   0  0  0  0  0  0  0  0  0  0  0  0
   35.7220   -7.1430  -20.4800 C   0  0  0  0  0  0  0  0  0  0  0  0
   31.2610  -11.0770  -22.6220 C   0  0  0  0  0  0  0  0  0  0  0  0
   32.4130  -13.1240  -24.3280 C   0  0  3  0  0  0  0  0  0  0  0  0
   30.4910  -12.3100  -23.0930 C   0  0  3  0  0  0  0  0  0  0  0  0
   35.4270   -9.7960  -22.3990 C   0  0  0  0  0  0  0  0  0  0  0  0
   33.9310  -13.0670  -24.1210 C   0  0  3  0  0  0  0  0  0  0  0  0
   34.3550  -13.8160  -23.0000 O   0  0  0  0  0  0  0  0  0  0  0  0
   31.5540  -13.4280  -23.0810 C   0  0  0  0  0  0  0  0  0  0  0  0
   33.5940  -10.6700  -23.5010 C   0  0  3  0  0  0  0  0  0  0  0  0
   35.0290   -6.1640  -19.7750 C   0  0  0  0  0  0  0  0  0  0  0  0
   33.9860   -6.5390  -18.9250 C   0  0  0  0  0  0  0  0  0  0  0  0
   31.8320  -11.8150  -24.8930 C   0  0  3  0  0  0  0  0  0  0  0  0
   35.4060   -8.4870  -20.2880 C   0  0  0  0  0  0  0  0  0  0  0  0
   33.8070   -7.8810  -18.6050 C   0  0  0  0  0  0  0  0  0  0  0  0
   33.1240   -5.6140  -18.4370 O   0  0  0  0  0  0  0  0  0  0  0  0
   35.8820   -9.4990  -21.1350 N   0  0  0  0  0  0  0  0  0  0  0  0
   36.3140  -10.3040  -23.3630 C   0  0  0  0  0  0  0  0  0  0  0  0
  1 21  2  0  0  0  0
  1 22  1  0  0  0  0
  2  7  1  0  0  0  0
  2  8  1  0  0  0  0
  2 12  1  0  0  0  0
  2 20  1  0  0  0  0
  3 10  1  0  0  0  0
  3 17  1  0  0  0  0
  3 20  1  0  0  0  0
  4 13  2  0  0  0  0
  4 17  1  0  0  0  0
  5  6  1  0  0  0  0
  5 25  1  0  0  0  0
  6 14  1  0  0  0  0
  6 17  1  0  0  0  0
  9 18  2  0  0  0  0
  9 21  1  0  0  0  0
 10 12  1  0  0  0  0
 11 14  1  0  0  0  0
 11 16  1  0  0  0  0
 11 20  1  0  0  0  0
 12 16  1  0  0  0  0
 13 24  1  0  0  0  0
 13 25  1  0  0  0  0
 14 15  1  0  0  0  0
 18 19  1  0  0  0  0
 19 22  2  0  0  0  0
 19 23  1  0  0  0  0
 21 24  1  0  0  0  0
M  END
>  <Original_Directory>
3f7b_B_rec_3f7u_ag4_lig_tt_docked_0_pocket10

>  <Original_Filename>
3f7b_B_rec_3f7u_ag4_lig_tt_docked_0_pocket10_gen_sample_15.sdf

>  <Molecule_ID>
sample_15

>  <logS>
-2.2323699

$$$$