/tmp/tmpbx4ffksv
  MOE2022           3D

 25 27  0  0  0  0  0  0  0  0999 V2000
   34.2990   -8.6450  -19.0070 O   0  0  0  0  0  0  0  0  0  0  0  0
   35.7480   -9.2050  -23.0010 C   0  0  0  0  0  0  0  0  0  0  0  0
   31.2350  -12.7450  -22.6190 C   0  0  0  0  0  0  0  0  0  0  0  0
   35.2670  -11.0030  -21.4740 C   0  0  0  0  0  0  0  0  0  0  0  0
   35.3470  -10.3470  -20.2570 C   0  0  0  0  0  0  0  0  0  0  0  0
   36.0760  -11.2490  -25.5950 C   0  0  0  0  0  0  0  0  0  0  0  0
   34.6570  -13.1270  -25.0140 C   0  0  0  0  0  0  0  0  0  0  0  0
   35.0190  -11.8070  -24.7410 C   0  0  0  0  0  0  0  0  0  0  0  0
   32.5230  -12.2280  -22.7030 C   0  0  0  0  0  0  0  0  0  0  0  0
   30.2100  -11.8070  -24.6160 C   0  0  0  0  0  0  0  0  0  0  0  0
   36.9240  -12.1380  -26.2170 O   0  0  0  0  0  0  0  0  0  0  0  0
   35.1310   -9.0000  -20.0080 C   0  0  0  0  0  0  0  0  0  0  0  0
   29.4260  -12.0410  -25.7080 O   0  0  0  0  0  0  0  0  0  0  0  0
   36.2490  -10.0490  -25.7810 O   0  0  0  0  0  0  0  0  0  0  0  0
   30.8660  -10.5880  -24.4840 C   0  0  0  0  0  0  0  0  0  0  0  0
   30.3540  -12.8230  -23.6910 C   0  0  0  0  0  0  0  0  0  0  0  0
   34.4100  -11.1040  -23.7170 N   0  0  0  0  0  0  0  0  0  0  0  0
   35.1270  -10.4310  -22.7430 C   0  0  0  0  0  0  0  0  0  0  0  0
   33.0450  -11.2290  -23.5220 C   0  0  0  0  0  0  0  0  0  0  0  0
   32.1770  -10.3400  -24.1540 C   0  0  0  0  0  0  0  0  0  0  0  0
   30.7930  -13.2690  -21.4310 O   0  0  0  0  0  0  0  0  0  0  0  0
   36.1750   -8.2680  -22.0820 C   0  0  0  0  0  0  0  0  0  0  0  0
   36.3720  -13.3420  -26.6700 C   0  0  0  0  0  0  0  0  0  0  0  0
   35.7920   -8.0420  -20.7790 C   0  0  0  0  0  0  0  0  0  0  0  0
   35.3090  -13.8900  -25.9910 C   0  0  0  0  0  0  0  0  0  0  0  0
  1 12  1  0  0  0  0
  2 18  2  0  0  0  0
  2 22  1  0  0  0  0
  3  9  1  0  0  0  0
  3 16  2  0  0  0  0
  3 21  1  0  0  0  0
  4  5  2  0  0  0  0
  4 18  1  0  0  0  0
  5 12  1  0  0  0  0
  6  8  1  0  0  0  0
  6 11  1  0  0  0  0
  6 14  2  0  0  0  0
  7  8  2  0  0  0  0
  7 25  1  0  0  0  0
  8 17  1  0  0  0  0
  9 19  1  0  0  0  0
 10 13  1  0  0  0  0
 10 15  2  0  0  0  0
 10 16  1  0  0  0  0
 11 23  1  0  0  0  0
 12 24  2  0  0  0  0
 15 20  1  0  0  0  0
 17 18  1  0  0  0  0
 17 19  1  0  0  0  0
 19 20  2  0  0  0  0
 22 24  1  0  0  0  0
 23 25  2  0  0  0  0
M  END
>  <Original_Directory>
3f7b_B_rec_3f7u_ag4_lig_tt_docked_0_pocket10

>  <Original_Filename>
3f7b_B_rec_3f7u_ag4_lig_tt_docked_0_pocket10_gen_sample_1.sdf

>  <Molecule_ID>
sample_1

>  <logS>
-3.4593699

$$$$