/tmp/tmpre2702qn
  MOE2022           3D

 35 40  0  0  1  0  0  0  0  0999 V2000
   -9.0710  -21.4610    1.6290 C   0  0  3  0  0  0  0  0  0  0  0  0
  -11.2650  -27.7240    0.8590 C   0  0  3  0  0  0  0  0  0  0  0  0
  -12.8340  -31.2080    2.1070 C   0  0  0  0  0  0  0  0  0  0  0  0
   -9.6710  -22.8440    1.4390 C   0  0  3  0  0  0  0  0  0  0  0  0
  -10.0440  -18.3980    3.5660 C   0  0  3  0  0  0  0  0  0  0  0  0
  -10.3070  -20.8220    3.7500 C   0  0  0  0  0  0  0  0  0  0  0  0
  -12.8250  -29.9820    1.2130 C   0  0  3  0  0  0  0  0  0  0  0  0
  -12.8100  -26.1650    1.7430 O   0  0  0  0  0  0  0  0  0  0  0  0
  -13.4360  -28.7920    1.6350 C   0  0  0  0  0  0  0  0  0  0  0  0
  -11.1300  -23.6330   -0.3620 C   0  0  0  0  0  0  0  0  0  0  0  0
   -9.2220  -17.2290    4.0420 C   0  0  0  0  0  0  0  0  0  0  0  0
   -7.5190  -16.1500    7.0670 C   0  0  0  0  0  0  0  0  0  0  0  0
   -9.6220  -26.0730   -0.0970 C   0  0  0  0  0  0  0  0  0  0  0  0
   -9.2720  -16.8220    5.4710 C   0  0  3  0  0  0  0  0  0  0  0  0
   -9.6580  -23.3810   -0.0040 C   0  0  3  0  0  0  0  0  0  0  0  0
  -10.4580  -16.0460    5.9530 C   0  0  0  0  0  0  0  0  0  0  0  0
  -11.5340  -31.8130    2.0070 O   0  0  0  0  0  0  0  0  0  0  0  0
  -11.7570  -24.0060    0.9840 C   0  0  3  0  0  0  0  0  0  0  0  0
  -11.9640  -29.9800    0.0880 C   0  0  0  0  0  0  0  0  0  0  0  0
  -10.2670  -14.7070    6.4410 C   0  0  0  0  0  0  0  0  0  0  0  0
  -11.0890  -28.8840   -0.0560 C   0  0  0  0  0  0  0  0  0  0  0  0
   -8.6040  -20.8750    0.4240 O   0  0  0  0  0  0  0  0  0  0  0  0
  -12.5840  -27.5800    1.5510 C   0  0  0  0  0  0  0  0  0  0  0  0
  -11.5800  -25.4760    1.3910 C   0  0  3  0  0  0  0  0  0  0  0  0
  -11.9620  -26.2370   -1.0340 C   0  0  0  0  0  0  0  0  0  0  0  0
  -11.5910  -16.5550    5.9180 O   0  0  0  0  0  0  0  0  0  0  0  0
   -7.8840  -14.8370    7.2520 C   0  0  0  0  0  0  0  0  0  0  0  0
  -11.0820  -26.3500    0.2220 C   0  0  2  0  0  0  0  0  0  0  0  0
   -8.9350  -24.7330    0.0300 C   0  0  0  0  0  0  0  0  0  0  0  0
   -8.2070  -17.1090    6.2980 C   0  0  0  0  0  0  0  0  0  0  0  0
   -9.0680  -14.2110    6.8840 C   0  0  0  0  0  0  0  0  0  0  0  0
  -11.0560  -23.0950    2.0090 C   0  0  0  0  0  0  0  0  0  0  0  0
   -9.3920  -19.0610    2.3570 C   0  0  0  0  0  0  0  0  0  0  0  0
  -10.0030  -20.4560    2.3030 C   0  0  3  0  0  0  0  0  0  0  0  0
  -10.5290  -19.4890    4.4760 C   0  0  0  0  0  0  0  0  0  0  0  0
  1  4  1  0  0  0  0
  1 22  1  0  0  0  0
  1 34  1  0  0  0  0
  2 21  1  0  0  0  0
  2 23  1  0  0  0  0
  2 28  1  0  0  0  0
  3  7  1  0  0  0  0
  3 17  1  0  0  0  0
  4 15  1  0  0  0  0
  4 32  1  0  0  0  0
  5 11  1  0  0  0  0
  5 33  1  0  0  0  0
  5 35  1  0  0  0  0
  6 34  1  0  0  0  0
  6 35  1  0  0  0  0
  7  9  1  0  0  0  0
  7 19  1  0  0  0  0
  8 23  1  0  0  0  0
  8 24  1  0  0  0  0
  9 23  2  0  0  0  0
 10 15  1  0  0  0  0
 10 18  1  0  0  0  0
 11 14  1  0  0  0  0
 12 27  1  0  0  0  0
 12 30  2  0  0  0  0
 13 28  1  0  0  0  0
 13 29  1  0  0  0  0
 14 16  1  0  0  0  0
 14 30  1  0  0  0  0
 15 29  1  0  0  0  0
 16 20  1  0  0  0  0
 16 26  2  0  0  0  0
 18 24  1  0  0  0  0
 18 32  1  0  0  0  0
 19 21  2  0  0  0  0
 20 31  1  0  0  0  0
 24 28  1  0  0  0  0
 25 28  1  0  0  0  0
 27 31  2  0  0  0  0
 33 34  1  0  0  0  0
M  END
>  <Original_Directory>
2yig_B_rec_3kry_3kr_lig_tt_min_0_pocket10

>  <Original_Filename>
2yig_B_rec_3kry_3kr_lig_tt_min_0_pocket10_gen_sample_13.sdf

>  <Molecule_ID>
sample_13

>  <logS>
-4.88516

$$$$