/tmp/tmp2j0fk_d1
  MOE2022           3D

 14 16  0  0  1  0  0  0  0  0999 V2000
   38.4020   72.1490   30.5270 C   0  0  0  0  0  0  0  0  0  0  0  0
   40.8250   74.8010   32.2730 C   0  0  0  0  0  0  0  0  0  0  0  0
   41.8630   69.8960   33.0530 C   0  0  3  0  0  0  0  0  0  0  0  0
   41.3250   72.3630   32.7820 C   0  0  3  0  0  0  0  0  0  0  0  0
   39.3350   72.9390   31.4560 C   0  0  3  0  0  0  0  0  0  0  0  0
   41.9100   73.7650   32.5710 C   0  0  0  0  0  0  0  0  0  0  0  0
   40.9840   69.6630   31.7990 C   0  0  0  0  0  0  0  0  0  0  0  0
   42.4310   71.3220   32.9890 C   0  0  0  0  0  0  0  0  0  0  0  0
   39.8750   74.3470   31.1440 C   0  0  3  0  0  0  0  0  0  0  0  0
   39.8190   70.6800   31.8900 C   0  0  3  0  0  0  0  0  0  0  0  0
   38.8690   70.6730   30.6610 C   0  0  0  0  0  0  0  0  0  0  0  0
   40.5540   72.0010   31.5090 C   0  0  3  0  0  0  0  0  0  0  0  0
   42.9950   69.0230   32.9600 O   0  0  0  0  0  0  0  0  0  0  0  0
   38.7900   75.2730   31.1400 O   0  0  0  0  0  0  0  0  0  0  0  0
  1  5  1  0  0  0  0
  1 11  1  0  0  0  0
  2  6  1  0  0  0  0
  2  9  1  0  0  0  0
  3  7  1  0  0  0  0
  3  8  1  0  0  0  0
  3 13  1  0  0  0  0
  4  6  1  0  0  0  0
  4  8  1  0  0  0  0
  4 12  1  0  0  0  0
  5  9  1  0  0  0  0
  5 12  1  0  0  0  0
  7 10  1  0  0  0  0
  9 14  1  0  0  0  0
 10 11  1  0  0  0  0
 10 12  1  0  0  0  0
M  END
>  <Original_Directory>
1oax_L_rec_1oax_anq_lig_tt_docked_3_pocket10

>  <Original_Filename>
1oax_L_rec_1oax_anq_lig_tt_docked_3_pocket10_gen_sample_9.sdf

>  <Molecule_ID>
sample_9

>  <logS>
-1.46137

$$$$