/tmp/tmprcsnha2i
  MOE2022           3D

 16 17  0  0  1  0  0  0  0  0999 V2000
   76.5460   92.3800   59.7740 C   0  0  0  0  0  0  0  0  0  0  0  0
   78.3390   90.9440   58.7940 C   0  0  0  0  0  0  0  0  0  0  0  0
   76.1920   90.3520   67.0130 O   0  0  0  0  0  0  0  0  0  0  0  0
   78.5390   88.8220   61.9490 C   0  0  0  0  0  0  0  0  0  0  0  0
   78.2200   90.0530   61.1640 C   0  0  0  0  0  0  0  0  0  0  0  0
   77.3300   91.8900   58.7230 C   0  0  0  0  0  0  0  0  0  0  0  0
   76.5230   89.3500   66.2810 C   0  0  0  0  0  0  0  0  0  0  0  0
   78.1670   88.2290   63.0540 C   0  0  0  0  0  0  0  0  0  0  0  0
   77.5870   91.2320   61.8210 C   0  0  0  0  0  0  0  0  0  0  0  0
   77.8050   91.5870   63.2990 C   0  0  0  0  0  0  0  0  0  0  0  0
   76.9070   88.5320   63.9070 C   0  0  0  0  0  0  0  0  0  0  0  0
   76.7000   88.2040   66.7620 O   0  0  0  0  0  0  0  0  0  0  0  0
   77.2260   89.6760   64.9320 C   0  0  3  0  0  0  0  0  0  0  0  0
   76.7340   92.1550   61.1390 C   0  0  0  0  0  0  0  0  0  0  0  0
   76.7630   91.0460   64.3150 C   0  0  0  0  0  0  0  0  0  0  0  0
   78.6290   90.0120   59.8090 C   0  0  0  0  0  0  0  0  0  0  0  0
  1  6  2  0  0  0  0
  1 14  1  0  0  0  0
  2  6  1  0  0  0  0
  2 16  2  0  0  0  0
  3  7  1  0  0  0  0
  4  5  1  0  0  0  0
  4  8  2  0  0  0  0
  5  9  2  0  0  0  0
  5 16  1  0  0  0  0
  7 12  2  0  0  0  0
  7 13  1  0  0  0  0
  8 11  1  0  0  0  0
  9 10  1  0  0  0  0
  9 14  1  0  0  0  0
 10 15  1  0  0  0  0
 11 13  1  0  0  0  0
 13 15  1  0  0  0  0
M  END
>  <Original_Directory>
1mqh_A_rec_2aix_u1k_lig_tt_docked_0_pocket10

>  <Original_Filename>
1mqh_A_rec_2aix_u1k_lig_tt_docked_0_pocket10_gen_sample_17.sdf

>  <Molecule_ID>
sample_17

>  <logS>
-2.1574299

$$$$