/tmp/tmpdee4lj9w
  MOE2022           3D

 16 18  0  0  1  0  0  0  0  0999 V2000
   77.5050   91.1850   60.0490 C   0  0  0  0  0  0  0  0  0  0  0  0
   75.1160   93.8170   60.1000 F   0  0  0  0  0  0  0  0  0  0  0  0
   75.9760   92.5440   63.8420 C   0  0  0  0  0  0  0  0  0  0  0  0
   76.8130   93.7160   61.7260 C   0  0  0  0  0  0  0  0  0  0  0  0
   77.0880   94.8810   61.9810 O   0  0  0  0  0  0  0  0  0  0  0  0
   77.2340   88.7440   65.3820 C   0  0  0  0  0  0  0  0  0  0  0  0
   77.8860   90.7240   61.2700 C   0  0  0  0  0  0  0  0  0  0  0  0
   76.3020   93.3220   60.4180 C   0  0  3  0  0  0  0  0  0  0  0  0
   77.7880   91.3700   62.6120 C   0  0  3  0  0  0  0  0  0  0  0  0
   77.8400   89.4010   64.2240 N   0  0  0  0  0  0  0  0  0  0  0  0
   75.6310   90.7060   65.5720 C   0  0  0  0  0  0  0  0  0  0  0  0
   77.0780   90.5050   63.6550 C   0  0  3  0  0  0  0  0  0  0  0  0
   76.9240   92.3990   59.5830 C   0  0  0  0  0  0  0  0  0  0  0  0
   76.6470   91.5040   64.7430 C   0  0  3  0  0  0  0  0  0  0  0  0
   76.9970   92.6410   62.7360 C   0  0  3  0  0  0  0  0  0  0  0  0
   76.3960   89.6140   66.3150 C   0  0  0  0  0  0  0  0  0  0  0  0
  1  7  2  0  0  0  0
  1 13  1  0  0  0  0
  2  8  1  0  0  0  0
  3 14  1  0  0  0  0
  3 15  1  0  0  0  0
  4  5  2  0  0  0  0
  4  8  1  0  0  0  0
  4 15  1  0  0  0  0
  6 10  1  0  0  0  0
  6 16  1  0  0  0  0
  7  9  1  0  0  0  0
  8 13  1  0  0  0  0
  9 12  1  0  0  0  0
  9 15  1  0  0  0  0
 10 12  1  0  0  0  0
 11 14  1  0  0  0  0
 11 16  1  0  0  0  0
 12 14  1  0  0  0  0
M  END
>  <Original_Directory>
1mqh_A_rec_2aix_u1k_lig_tt_docked_0_pocket10

>  <Original_Filename>
1mqh_A_rec_2aix_u1k_lig_tt_docked_0_pocket10_gen_sample_7.sdf

>  <Molecule_ID>
sample_7

>  <logS>
-1.04138

$$$$