/tmp/tmpq7m0zl8b
  MOE2022           3D

 23 26  0  0  1  0  0  0  0  0999 V2000
   14.5410   41.3590   36.2350 N   0  0  0  0  0  0  0  0  0  0  0  0
   16.0700   41.8430   32.1630 N   0  0  0  0  0  0  0  0  0  0  0  0
   20.6340   38.3310   35.9770 O   0  0  0  0  0  0  0  0  0  0  0  0
   14.5110   41.8850   33.8840 N   0  0  0  0  0  0  0  0  0  0  0  0
   15.6180   41.3730   33.3130 C   0  0  0  0  0  0  0  0  0  0  0  0
   18.7810   37.9830   34.6300 N   0  0  0  0  0  0  0  0  0  0  0  0
   18.8370   34.0220   38.1690 C   0  0  0  0  0  0  0  0  0  0  0  0
   17.6250   39.5900   35.5220 N   0  0  0  0  0  0  0  0  0  0  0  0
   16.3380   40.3570   33.9890 C   0  0  0  0  0  0  0  0  0  0  0  0
   18.8600   36.9100   36.7820 C   0  0  0  0  0  0  0  0  0  0  0  0
   19.2780   38.0870   36.0190 C   0  0  1  0  0  0  0  0  0  0  0  0
   17.8640   38.9270   34.4040 C   0  0  0  0  0  0  0  0  0  0  0  0
   18.8960   39.9610   37.4120 O   0  0  0  0  0  0  0  0  0  0  0  0
   16.5210   40.2800   35.3670 C   0  0  0  0  0  0  0  0  0  0  0  0
   17.1620   35.0880   36.7940 C   0  0  0  0  0  0  0  0  0  0  0  0
   19.6900   36.3820   37.7520 C   0  0  0  0  0  0  0  0  0  0  0  0
   18.5420   39.3310   36.4060 C   0  0  0  0  0  0  0  0  0  0  0  0
   19.6560   35.1140   38.2600 C   0  0  0  0  0  0  0  0  0  0  0  0
   17.6000   36.3660   36.6110 C   0  0  0  0  0  0  0  0  0  0  0  0
   17.0830   39.3880   33.4490 N   0  0  0  0  0  0  0  0  0  0  0  0
   15.6090   40.5840   36.3880 C   0  0  0  0  0  0  0  0  0  0  0  0
   17.6540   34.0100   37.4870 C   0  0  0  0  0  0  0  0  0  0  0  0
   14.0240   41.7340   35.0940 C   0  0  0  0  0  0  0  0  0  0  0  0
  1 21  1  0  0  0  0
  1 23  2  0  0  0  0
  2  5  1  0  0  0  0
  3 11  1  0  0  0  0
  4  5  2  0  0  0  0
  4 23  1  0  0  0  0
  5  9  1  0  0  0  0
  6 11  1  0  0  0  0
  6 12  2  0  0  0  0
  7 18  1  0  0  0  0
  7 22  2  0  0  0  0
  8 12  1  0  0  0  0
  8 14  1  0  0  0  0
  8 17  1  0  0  0  0
  9 14  2  0  0  0  0
  9 20  1  0  0  0  0
 10 11  1  0  0  0  0
 10 16  2  0  0  0  0
 10 19  1  0  0  0  0
 11 17  1  0  0  0  0
 12 20  1  0  0  0  0
 13 17  2  0  0  0  0
 14 21  1  0  0  0  0
 15 19  2  0  0  0  0
 15 22  1  0  0  0  0
 16 18  1  0  0  0  0
M  END
>  <Original_Directory>
1los_A_rec_2zz2_6cn_lig_tt_docked_1_pocket10

>  <Original_Filename>
1los_A_rec_2zz2_6cn_lig_tt_docked_1_pocket10_gen_sample_11.sdf

>  <Molecule_ID>
sample_11

>  <logS>
-3.54023

$$$$