/tmp/tmp788etcf6
  MOE2022           3D

 21 23  0  0  1  0  0  0  0  0999 V2000
   -3.4450    6.9830  -54.5310 O   0  0  0  0  0  0  0  0  0  0  0  0
   -3.6230    3.7080  -49.6050 O   0  0  0  0  0  0  0  0  0  0  0  0
   -2.8970    3.7030  -52.9860 C   0  0  0  0  0  0  0  0  0  0  0  0
   -2.8740    6.0890  -53.6750 C   0  0  0  0  0  0  0  0  0  0  0  0
   -1.8880    4.8600  -51.1470 C   0  0  0  0  0  0  0  0  0  0  0  0
   -1.1810    0.5280  -52.9570 C   0  0  0  0  0  0  0  0  0  0  0  0
   -2.7220    5.8950  -48.9720 O   0  0  0  0  0  0  0  0  0  0  0  0
   -1.4820    6.0890  -51.6350 C   0  0  0  0  0  0  0  0  0  0  0  0
   -1.9570    3.7420  -51.9860 C   0  0  3  0  0  0  0  0  0  0  0  0
   -1.0400    0.0970  -48.9880 O   0  0  0  0  0  0  0  0  0  0  0  0
   -0.9730    2.6290  -51.6880 C   0  0  3  0  0  0  0  0  0  0  0  0
   -2.5280    4.5910  -49.5580 S   0  0  0  0  0  0  0  0  0  0  0  0
   -0.5250    1.8840  -52.9360 C   0  0  0  0  0  0  0  0  0  0  0  0
   -3.3620    4.8050  -53.6820 C   0  0  0  0  0  0  0  0  0  0  0  0
   -1.7770    0.3120  -51.5800 C   0  0  0  0  0  0  0  0  0  0  0  0
   -0.1550    2.2720  -47.3740 O   0  0  0  0  0  0  0  0  0  0  0  0
   -1.1850    3.8560  -48.7380 C   0  0  0  0  0  0  0  0  0  0  0  0
   -1.6250    1.5880  -50.7730 C   0  0  3  0  0  0  0  0  0  0  0  0
   -0.7970    1.4030  -49.5010 C   0  0  3  0  0  0  0  0  0  0  0  0
   -1.1330    2.3870  -48.3890 C   0  0  3  0  0  0  0  0  0  0  0  0
   -1.8110    6.5190  -52.9150 C   0  0  0  0  0  0  0  0  0  0  0  0
  1  4  1  0  0  0  0
  2 12  2  0  0  0  0
  3  9  1  0  0  0  0
  3 14  2  0  0  0  0
  4 14  1  0  0  0  0
  4 21  2  0  0  0  0
  5  8  2  0  0  0  0
  5  9  1  0  0  0  0
  5 12  1  0  0  0  0
  6 13  1  0  0  0  0
  6 15  1  0  0  0  0
  7 12  2  0  0  0  0
  8 21  1  0  0  0  0
  9 11  1  0  0  0  0
 10 19  1  0  0  0  0
 11 13  1  0  0  0  0
 11 18  1  0  0  0  0
 12 17  1  0  0  0  0
 15 18  1  0  0  0  0
 16 20  1  0  0  0  0
 17 20  1  0  0  0  0
 18 19  1  0  0  0  0
 19 20  1  0  0  0  0
M  END
>  <Original_Directory>
4ldo_A_rec_3d4s_tim_lig_tt_min_0_pocket10

>  <Original_Filename>
4ldo_A_rec_3d4s_tim_lig_tt_min_0_pocket10_gen_sample_15.sdf

>  <Molecule_ID>
sample_15

>  <logS>
-2.1415901

$$$$