/tmp/tmp9bd9b03u
  MOE2022           3D

 21 23  0  0  1  0  0  0  0  0999 V2000
    0.2510    1.3980  -51.7820 C   0  0  0  0  0  0  0  0  0  0  0  0
   -1.4540    3.9270  -48.8540 C   0  0  0  0  0  0  0  0  0  0  0  0
   -0.0820    1.9830  -49.4740 C   0  0  0  0  0  0  0  0  0  0  0  0
   -2.0840    4.7020  -53.2750 C   0  0  3  0  0  0  0  0  0  0  0  0
   -1.6390    0.6480  -53.1510 C   0  0  0  0  0  0  0  0  0  0  0  0
   -2.8600    5.1810  -50.3820 C   0  0  0  0  0  0  0  0  0  0  0  0
   -1.5120    7.1170  -53.4660 C   0  0  0  0  0  0  0  0  0  0  0  0
   -2.6380    6.2200  -51.4270 C   0  0  0  0  0  0  0  0  0  0  0  0
   -3.8990    5.2170  -49.7500 O   0  0  0  0  0  0  0  0  0  0  0  0
   -0.3100    0.8100  -52.9020 C   0  0  0  0  0  0  0  0  0  0  0  0
   -2.6260    1.0600  -52.2810 C   0  0  0  0  0  0  0  0  0  0  0  0
   -2.7780    2.1880  -51.5030 C   0  0  0  0  0  0  0  0  0  0  0  0
   -1.1290    3.8330  -52.4850 C   0  0  0  0  0  0  0  0  0  0  0  0
    0.6360    0.9440  -49.0680 F   0  0  0  0  0  0  0  0  0  0  0  0
   -0.4120    2.1590  -50.8130 C   0  0  0  0  0  0  0  0  0  0  0  0
   -0.3550    2.6230  -47.2410 O   0  0  0  0  0  0  0  0  0  0  0  0
   -1.8880    4.0620  -50.1160 C   0  0  0  0  0  0  0  0  0  0  0  0
   -0.6060    2.8410  -48.4500 C   0  0  0  0  0  0  0  0  0  0  0  0
   -2.2550    6.0740  -52.6580 C   0  0  3  0  0  0  0  0  0  0  0  0
   -3.3520    4.1360  -53.5240 O   0  0  0  0  0  0  0  0  0  0  0  0
   -1.5510    3.0800  -51.2260 C   0  0  2  0  0  0  0  0  0  0  0  0
  1 10  1  0  0  0  0
  1 15  1  0  0  0  0
  2 17  2  0  0  0  0
  2 18  1  0  0  0  0
  3 14  1  0  0  0  0
  3 15  2  0  0  0  0
  3 18  1  0  0  0  0
  4 13  1  0  0  0  0
  4 19  1  0  0  0  0
  4 20  1  0  0  0  0
  5 10  2  0  0  0  0
  5 11  1  0  0  0  0
  6  8  1  0  0  0  0
  6  9  2  0  0  0  0
  6 17  1  0  0  0  0
  7 19  1  0  0  0  0
  8 19  1  0  0  0  0
 11 12  1  0  0  0  0
 12 21  1  0  0  0  0
 13 21  1  0  0  0  0
 15 21  1  0  0  0  0
 16 18  2  0  0  0  0
 17 21  1  0  0  0  0
M  END
>  <Original_Directory>
4ldo_A_rec_3d4s_tim_lig_tt_min_0_pocket10

>  <Original_Filename>
4ldo_A_rec_3d4s_tim_lig_tt_min_0_pocket10_gen_sample_7.sdf

>  <Molecule_ID>
sample_7

>  <logS>
-3.1338799

$$$$