/tmp/tmp_xe8c724
  MOE2022           3D

 21 23  0  0  1  0  0  0  0  0999 V2000
   -1.0380    2.4220  -48.9180 C   0  0  0  0  0  0  0  0  0  0  0  0
   -1.0350    1.5080  -51.3140 C   0  0  0  0  0  0  0  0  0  0  0  0
   -1.3070    0.6780  -53.5370 C   0  0  0  0  0  0  0  0  0  0  0  0
   -2.6680    6.4550  -53.0960 C   0  0  0  0  0  0  0  0  0  0  0  0
   -0.3130    6.2700  -52.7220 C   0  0  0  0  0  0  0  0  0  0  0  0
   -2.9710    2.1460  -52.6030 C   0  0  0  0  0  0  0  0  0  0  0  0
   -2.0700    2.4120  -51.5730 C   0  0  0  0  0  0  0  0  0  0  0  0
   -0.9220   -0.1240  -54.5640 O   0  0  0  0  0  0  0  0  0  0  0  0
   -2.5440    1.2990  -53.6270 C   0  0  0  0  0  0  0  0  0  0  0  0
   -0.5260    2.4560  -47.8060 O   0  0  0  0  0  0  0  0  0  0  0  0
   -0.5080    0.8150  -52.3990 C   0  0  0  0  0  0  0  0  0  0  0  0
   -1.3670    6.7920  -53.4460 C   0  0  0  0  0  0  0  0  0  0  0  0
   -0.6200    1.3350  -49.8930 C   0  0  0  0  0  0  0  0  0  0  0  0
   -2.0410    3.5870  -50.7890 C   0  0  3  0  0  0  0  0  0  0  0  0
   -1.8180    4.8380  -51.5120 C   0  0  0  0  0  0  0  0  0  0  0  0
   -2.8830    5.4960  -52.1130 C   0  0  0  0  0  0  0  0  0  0  0  0
   -0.1750    0.2900  -49.4550 O   0  0  0  0  0  0  0  0  0  0  0  0
   -3.1110    3.8050  -48.5020 C   0  0  0  0  0  0  0  0  0  0  0  0
   -2.0010    3.3820  -49.4190 C   0  0  3  0  0  0  0  0  0  0  0  0
   -0.5370    5.3300  -51.7250 C   0  0  0  0  0  0  0  0  0  0  0  0
   -3.7140    5.1240  -48.9000 C   0  0  0  0  0  0  0  0  0  0  0  0
  1 10  2  0  0  0  0
  1 13  1  0  0  0  0
  1 19  1  0  0  0  0
  2  7  2  0  0  0  0
  2 11  1  0  0  0  0
  2 13  1  0  0  0  0
  3  8  1  0  0  0  0
  3  9  1  0  0  0  0
  3 11  2  0  0  0  0
  4 12  2  0  0  0  0
  4 16  1  0  0  0  0
  5 12  1  0  0  0  0
  5 20  2  0  0  0  0
  6  7  1  0  0  0  0
  6  9  2  0  0  0  0
  7 14  1  0  0  0  0
 13 17  2  0  0  0  0
 14 15  1  0  0  0  0
 14 19  1  0  0  0  0
 15 16  2  0  0  0  0
 15 20  1  0  0  0  0
 18 19  1  0  0  0  0
 18 21  1  0  0  0  0
M  END
>  <Original_Directory>
4ldo_A_rec_3d4s_tim_lig_tt_min_0_pocket10

>  <Original_Filename>
4ldo_A_rec_3d4s_tim_lig_tt_min_0_pocket10_gen_sample_17.sdf

>  <Molecule_ID>
sample_17

>  <logS>
-4.0844302

$$$$