/tmp/tmperu90ql5
  MOE2022           3D

 26 28  0  0  1  0  0  0  0  0999 V2000
   16.1890   55.1020   22.6970 N   0  0  0  0  0  0  0  0  0  0  0  0
   10.9280   54.8980   28.2030 C   0  0  0  0  0  0  0  0  0  0  0  0
    8.6300   53.4650   26.4200 O   0  0  0  0  0  0  0  0  0  0  0  0
   15.0930   53.3500   24.2570 O   0  0  0  0  0  0  0  0  0  0  0  0
    9.8160   55.4890   20.0780 C   0  0  0  0  0  0  0  0  0  0  0  0
    9.5890   55.3890   27.6140 C   0  0  0  0  0  0  0  0  0  0  0  0
   12.7750   54.2360   24.8910 C   0  0  0  0  0  0  0  0  0  0  0  0
   16.5540   52.8680   20.8400 O   0  0  0  0  0  0  0  0  0  0  0  0
   12.7120   53.4810   20.1890 N   0  0  0  0  0  0  0  0  0  0  0  0
   15.6140   53.7590   22.9580 C   0  0  0  0  0  0  0  0  0  0  0  0
   11.2770   53.4200   19.7200 C   0  0  0  0  0  0  0  0  0  0  0  0
   10.3160   54.7750   25.3180 C   0  0  0  0  0  0  0  0  0  0  0  0
    7.8670   53.8410   21.3810 C   0  0  0  0  0  0  0  0  0  0  0  0
    9.2230   54.7560   26.3160 N   0  0  0  0  0  0  0  0  0  0  0  0
   14.0730   53.1810   20.8010 C   0  0  0  0  0  0  0  0  0  0  0  0
   15.3640   52.8290   21.6990 C   0  0  3  0  0  0  0  0  0  0  0  0
   16.4790   55.3590   21.2680 N   0  0  0  0  0  0  0  0  0  0  0  0
   11.8190   54.0380   27.3090 C   0  0  0  0  0  0  0  0  0  0  0  0
   11.5610   53.9870   25.8010 C   0  0  3  0  0  0  0  0  0  0  0  0
    8.6630   56.0380   20.6410 N   0  0  0  0  0  0  0  0  0  0  0  0
    7.8170   55.2180   21.4750 N   0  0  0  0  0  0  0  0  0  0  0  0
    9.9090   54.0940   19.9790 C   0  0  0  0  0  0  0  0  0  0  0  0
   14.2840   54.1220   25.1710 C   0  0  0  0  0  0  0  0  0  0  0  0
    8.6700   53.3030   20.2630 C   0  0  0  0  0  0  0  0  0  0  0  0
   16.6960   54.2640   20.2910 C   0  0  0  0  0  0  0  0  0  0  0  0
    8.0730   52.4880   19.3120 N   0  0  0  0  0  0  0  0  0  0  0  0
  1 10  2  0  0  0  0
  1 17  1  0  0  0  0
  2  6  1  0  0  0  0
  2 18  1  0  0  0  0
  3 14  1  0  0  0  0
  4 10  1  0  0  0  0
  4 23  1  0  0  0  0
  5 20  2  0  0  0  0
  5 22  1  0  0  0  0
  6 14  1  0  0  0  0
  7 19  1  0  0  0  0
  7 23  1  0  0  0  0
  8 16  1  0  0  0  0
  8 25  1  0  0  0  0
  9 11  1  0  0  0  0
  9 15  1  0  0  0  0
 10 16  1  0  0  0  0
 11 22  1  0  0  0  0
 12 14  1  0  0  0  0
 12 19  1  0  0  0  0
 13 21  2  0  0  0  0
 13 24  1  0  0  0  0
 15 16  1  0  0  0  0
 17 25  2  0  0  0  0
 18 19  1  0  0  0  0
 20 21  1  0  0  0  0
 22 24  2  0  0  0  0
 24 26  1  0  0  0  0
M  END
>  <Original_Directory>
3os5_A_rec_4j8o_sah_lig_tt_docked_3_pocket10

>  <Original_Filename>
3os5_A_rec_4j8o_sah_lig_tt_docked_3_pocket10_gen_sample_7.sdf

>  <Molecule_ID>
sample_7

>  <logS>
-1.14467

$$$$