/tmp/tmp5dlp3opw
  MOE2022           3D

  9  8  0  0  0  0  0  0  0  0999 V2000
   74.2450   44.7750   25.6310 O   0  0  0  0  0  0  0  0  0  0  0  0
   76.2250   43.9430   28.0700 N   0  0  0  0  0  0  0  0  0  0  0  0
   73.6770   43.7490   26.0600 C   0  0  0  0  0  0  0  0  0  0  0  0
   72.9200   43.0200   25.3860 O   0  0  0  0  0  0  0  0  0  0  0  0
   72.5890   41.4210   27.5960 O   0  0  0  0  0  0  0  0  0  0  0  0
   74.8420   44.2330   28.2980 C   0  0  0  0  0  0  0  0  0  0  0  0
   73.6500   41.9750   27.9390 C   0  0  0  0  0  0  0  0  0  0  0  0
   74.6070   41.4470   28.5350 O   0  0  0  0  0  0  0  0  0  0  0  0
   73.7480   43.4620   27.5740 C   0  0  0  0  0  0  0  0  0  0  0  0
  1  3  1  0  0  0  0
  2  6  1  0  0  0  0
  3  4  2  0  0  0  0
  3  9  1  0  0  0  0
  5  7  2  0  0  0  0
  6  9  1  0  0  0  0
  7  8  1  0  0  0  0
  7  9  1  0  0  0  0
M  END
>  <Original_Directory>
3hx0_K_rec_3mda_ppv_lig_tt_docked_9_pocket10

>  <Original_Filename>
3hx0_K_rec_3mda_ppv_lig_tt_docked_9_pocket10_gen_sample_3.sdf

>  <Molecule_ID>
sample_3

>  <logS>
0.96994001

$$$$