/tmp/tmppkb6y8yk
  MOE2022           3D

 29 33  0  0  1  0  0  0  0  0999 V2000
  -24.5010   22.5550  -17.7770 C   0  0  0  0  0  0  0  0  0  0  0  0
  -25.5940   22.5740  -19.9350 C   0  0  0  0  0  0  0  0  0  0  0  0
  -26.9070   22.1960  -17.8880 C   0  0  3  0  0  0  0  0  0  0  0  0
  -21.4170   22.8590  -21.3310 O   0  0  0  0  0  0  0  0  0  0  0  0
  -21.9250   22.0550  -20.3860 C   0  0  3  0  0  0  0  0  0  0  0  0
  -28.4970   23.0480  -16.1800 C   0  0  0  0  0  0  0  0  0  0  0  0
  -30.4710   18.9440  -19.0940 C   0  0  0  0  0  0  0  0  0  0  0  0
  -21.0410   21.4040  -19.5270 C   0  0  0  0  0  0  0  0  0  0  0  0
  -27.4640   23.2360  -17.1000 C   0  0  0  0  0  0  0  0  0  0  0  0
  -25.6680   22.4540  -18.5420 C   0  0  0  0  0  0  0  0  0  0  0  0
  -26.9270   24.5300  -17.1940 C   0  0  0  0  0  0  0  0  0  0  0  0
  -30.6190   22.0810  -18.6660 C   0  0  0  0  0  0  0  0  0  0  0  0
  -31.2540   21.2760  -19.6040 C   0  0  0  0  0  0  0  0  0  0  0  0
  -29.7110   18.6700  -16.8320 C   0  0  0  0  0  0  0  0  0  0  0  0
  -31.2490   19.8630  -19.6260 C   0  0  0  0  0  0  0  0  0  0  0  0
  -27.9840   25.1400  -15.1180 C   0  0  0  0  0  0  0  0  0  0  0  0
  -29.5470   22.1150  -16.4120 C   0  0  0  0  0  0  0  0  0  0  0  0
  -24.3600   22.5980  -20.5730 C   0  0  0  0  0  0  0  0  0  0  0  0
  -28.5970   23.8970  -15.0720 C   0  0  0  0  0  0  0  0  0  0  0  0
  -23.2680   22.5530  -18.4140 C   0  0  0  0  0  0  0  0  0  0  0  0
  -29.2760   19.1620  -18.2020 C   0  0  3  0  0  0  0  0  0  0  0  0
  -28.7680   20.5840  -18.0450 C   0  0  0  0  0  0  0  0  0  0  0  0
  -23.1910   22.5140  -19.8080 C   0  0  0  0  0  0  0  0  0  0  0  0
  -27.1260   25.4400  -16.1680 C   0  0  0  0  0  0  0  0  0  0  0  0
  -21.2190   21.5350  -18.1610 C   0  0  0  0  0  0  0  0  0  0  0  0
  -30.1600   21.6090  -15.4730 O   0  0  0  0  0  0  0  0  0  0  0  0
  -22.1030   22.5060  -17.6960 O   0  0  0  0  0  0  0  0  0  0  0  0
  -27.4190   20.8980  -18.0080 C   0  0  0  0  0  0  0  0  0  0  0  0
  -29.6810   21.6080  -17.7380 C   0  0  3  0  0  0  0  0  0  0  0  0
  1 10  2  0  0  0  0
  1 20  1  0  0  0  0
  2 10  1  0  0  0  0
  2 18  2  0  0  0  0
  3  9  1  0  0  0  0
  3 10  1  0  0  0  0
  3 28  1  0  0  0  0
  4  5  1  0  0  0  0
  5  8  1  0  0  0  0
  5 23  1  0  0  0  0
  6  9  2  0  0  0  0
  6 17  1  0  0  0  0
  6 19  1  0  0  0  0
  7 15  2  0  0  0  0
  7 21  1  0  0  0  0
  8 25  2  0  0  0  0
  9 11  1  0  0  0  0
 11 24  2  0  0  0  0
 12 13  2  0  0  0  0
 12 29  1  0  0  0  0
 13 15  1  0  0  0  0
 14 21  1  0  0  0  0
 16 19  2  0  0  0  0
 16 24  1  0  0  0  0
 17 26  2  0  0  0  0
 17 29  1  0  0  0  0
 18 23  1  0  0  0  0
 20 23  2  0  0  0  0
 20 27  1  0  0  0  0
 21 22  1  0  0  0  0
 22 28  2  0  0  0  0
 22 29  1  0  0  0  0
 25 27  1  0  0  0  0
M  END
>  <Original_Directory>
4efu_A_rec_4efu_efu_lig_tt_min_0_pocket10

>  <Original_Filename>
4efu_A_rec_4efu_efu_lig_tt_min_0_pocket10_gen_sample_10.sdf

>  <Molecule_ID>
sample_10

>  <logS>
-6.5355501

$$$$