
  MOE2022           3D

 17 20  0  0  0  0  0  0  0  0999 V2000
   -8.1870   19.9030   10.8140 C   0  0  0  0  0  0  0  0  0  0  0  0
   -5.4730   19.1960   14.8490 C   0  0  0  0  0  0  0  0  0  0  0  0
   -5.8110   19.9900   16.1200 C   0  0  0  0  0  0  0  0  0  0  0  0
   -9.0940   20.8100   10.2620 C   0  0  0  0  0  0  0  0  0  0  0  0
   -4.4430   21.6010   14.7270 C   0  0  0  0  0  0  0  0  0  0  0  0
   -5.1320   21.3540   16.0790 C   0  0  0  0  0  0  0  0  0  0  0  0
   -7.3960   23.9210   10.9830 O   0  0  0  0  0  0  0  0  0  0  0  0
   -5.8940   22.1870   12.6640 C   0  0  0  0  0  0  0  0  0  0  0  0
   -6.0240   20.0300   13.6920 C   0  0  0  0  0  0  0  0  0  0  0  0
   -8.9750   22.1750   10.5440 C   0  0  0  0  0  0  0  0  0  0  0  0
   -7.8030   22.6390   11.1510 C   0  0  0  0  0  0  0  0  0  0  0  0
   -5.4550   21.3270   13.6280 C   0  0  0  0  0  0  0  0  0  0  0  0
   -6.9500   21.7310   11.8080 C   0  0  0  0  0  0  0  0  0  0  0  0
   -3.3650   20.5230   14.5650 C   0  0  0  0  0  0  0  0  0  0  0  0
   -6.6220   19.4970   12.6140 N   0  0  0  0  0  0  0  0  0  0  0  0
   -7.2430   20.3630   11.7400 C   0  0  0  0  0  0  0  0  0  0  0  0
   -3.9620   19.1320   14.6860 C   0  0  0  0  0  0  0  0  0  0  0  0
  1  4  1  0  0  0  0
  1 16  2  0  0  0  0
  2  3  1  0  0  0  0
  2  9  1  0  0  0  0
  2 17  1  0  0  0  0
  3  6  1  0  0  0  0
  4 10  2  0  0  0  0
  5  6  1  0  0  0  0
  5 12  1  0  0  0  0
  5 14  1  0  0  0  0
  7 11  1  0  0  0  0
  8 12  2  0  0  0  0
  8 13  1  0  0  0  0
  9 12  1  0  0  0  0
  9 15  2  0  0  0  0
 10 11  1  0  0  0  0
 11 13  2  0  0  0  0
 13 16  1  0  0  0  0
 14 17  1  0  0  0  0
 15 16  1  0  0  0  0
M  END
>  <Original_Directory>
5k0c_A_rec_5p9v_sah_lig_tt_min_0_pocket10

>  <Original_Filename>
5k0c_A_rec_5p9v_sah_lig_tt_min_0_pocket10_gen_sample_9.sdf

>  <Molecule_ID>
sample_9

>  <logS>
-3.3152299

$$$$