/tmp/tmpy0km9d26
  MOE2022           3D

 32 36  0  0  1  0  0  0  0  0999 V2000
   37.3520   35.0910   14.4640 C   0  0  0  0  0  0  0  0  0  0  0  0
   45.9240   41.1200   14.9310 N   0  0  0  0  0  0  0  0  0  0  0  0
   41.3040   37.7130   16.1500 C   0  0  0  0  0  0  0  0  0  0  0  0
   40.8950   35.7390   17.6730 N   0  0  0  0  0  0  0  0  0  0  0  0
   44.4500   35.4340   15.1590 C   0  0  0  0  0  0  0  0  0  0  0  0
   46.7010   39.5870   13.5880 N   0  0  0  0  0  0  0  0  0  0  0  0
   42.8440   34.7160   13.6380 O   0  0  0  0  0  0  0  0  0  0  0  0
   45.3360   34.3610   15.3890 C   0  0  0  0  0  0  0  0  0  0  0  0
   41.4730   36.2940   16.5840 C   0  0  3  0  0  0  0  0  0  0  0  0
   41.8310   35.2700   15.6830 C   0  0  3  0  0  0  0  0  0  0  0  0
   44.8670   36.7770   15.1820 C   0  0  0  0  0  0  0  0  0  0  0  0
   46.9330   42.4770   11.2020 C   0  0  0  0  0  0  0  0  0  0  0  0
   46.5000   34.4060   16.1620 C   0  0  0  0  0  0  0  0  0  0  0  0
   47.0270   41.1270   11.6010 C   0  0  0  0  0  0  0  0  0  0  0  0
   40.3840   34.5630   17.1850 N   0  0  0  0  0  0  0  0  0  0  0  0
   38.2620   34.2290   15.3260 C   0  0  0  0  0  0  0  0  0  0  0  0
   45.9390   38.9080   15.9990 C   0  0  0  0  0  0  0  0  0  0  0  0
   46.0690   43.0780   13.3850 C   0  0  0  0  0  0  0  0  0  0  0  0
   37.8700   36.4040   12.4440 F   0  0  0  0  0  0  0  0  0  0  0  0
   45.8060   37.4140   16.0000 C   0  0  0  0  0  0  0  0  0  0  0  0
   40.4170   35.0090   12.6140 O   0  0  0  0  0  0  0  0  0  0  0  0
   40.7180   34.3900   15.8530 C   0  0  3  0  0  0  0  0  0  0  0  0
   46.9330   35.4240   17.0100 C   0  0  0  0  0  0  0  0  0  0  0  0
   46.3500   43.4150   12.0650 C   0  0  0  0  0  0  0  0  0  0  0  0
   46.1980   41.7500   13.7740 C   0  0  0  0  0  0  0  0  0  0  0  0
   46.2550   39.8190   14.8370 C   0  0  0  0  0  0  0  0  0  0  0  0
   46.6010   36.7680   16.9630 C   0  0  0  0  0  0  0  0  0  0  0  0
   38.2550   35.6350   13.4290 C   0  0  3  0  0  0  0  0  0  0  0  0
   46.7730   40.7930   12.9310 C   0  0  0  0  0  0  0  0  0  0  0  0
   43.0240   35.1270   14.7750 C   0  0  0  0  0  0  0  0  0  0  0  0
   39.7080   35.4810   13.7620 C   0  0  3  0  0  0  0  0  0  0  0  0
   39.6770   34.3270   14.7690 C   0  0  3  0  0  0  0  0  0  0  0  0
  1 16  1  0  0  0  0
  1 28  1  0  0  0  0
  2 25  1  0  0  0  0
  2 26  2  0  0  0  0
  3  9  1  0  0  0  0
  4  9  1  0  0  0  0
  4 15  1  0  0  0  0
  5  8  1  0  0  0  0
  5 11  2  0  0  0  0
  5 30  1  0  0  0  0
  6 26  1  0  0  0  0
  6 29  1  0  0  0  0
  7 30  2  0  0  0  0
  8 13  1  0  0  0  0
  9 10  1  0  0  0  0
 10 22  1  0  0  0  0
 10 30  1  0  0  0  0
 11 20  1  0  0  0  0
 12 14  1  0  0  0  0
 12 24  2  0  0  0  0
 13 23  2  0  0  0  0
 14 29  2  0  0  0  0
 15 22  1  0  0  0  0
 16 32  1  0  0  0  0
 17 20  1  0  0  0  0
 17 26  1  0  0  0  0
 18 24  1  0  0  0  0
 18 25  2  0  0  0  0
 19 28  1  0  0  0  0
 20 27  2  0  0  0  0
 21 31  1  0  0  0  0
 22 32  1  0  0  0  0
 23 27  1  0  0  0  0
 25 29  1  0  0  0  0
 28 31  1  0  0  0  0
 31 32  1  0  0  0  0
M  END
>  <Original_Directory>
3g0g_A_rec_2oqv_ma9_lig_tt_docked_0_pocket10

>  <Original_Filename>
3g0g_A_rec_2oqv_ma9_lig_tt_docked_0_pocket10_gen_sample_9.sdf

>  <Molecule_ID>
sample_9

>  <logS>
-3.8352301

$$$$