/tmp/tmpxgjtgav4
  MOE2022           3D

 32 36  0  0  1  0  0  0  0  0999 V2000
   45.9850   41.7170   14.5520 C   0  0  0  0  0  0  0  0  0  0  0  0
   38.6620   35.9980   13.6790 C   0  0  0  0  0  0  0  0  0  0  0  0
   46.9500   38.0150   19.1970 C   0  0  0  0  0  0  0  0  0  0  0  0
   45.4870   36.5710   17.9320 C   0  0  0  0  0  0  0  0  0  0  0  0
   42.1280   35.4760   16.7060 C   0  0  0  0  0  0  0  0  0  0  0  0
   38.4250   33.9780   15.1590 C   0  0  0  0  0  0  0  0  0  0  0  0
   45.5300   37.5390   16.8180 C   0  0  0  0  0  0  0  0  0  0  0  0
   46.7380   44.1040   14.5310 C   0  0  0  0  0  0  0  0  0  0  0  0
   45.7030   39.9020   16.1780 C   0  0  0  0  0  0  0  0  0  0  0  0
   44.0750   36.1320   15.6140 C   0  0  3  0  0  0  0  0  0  0  0  0
   38.5120   37.3280   14.3920 C   0  0  0  0  0  0  0  0  0  0  0  0
   46.2090   43.5800   16.8950 C   0  0  0  0  0  0  0  0  0  0  0  0
   45.0850   37.1020   15.5580 C   0  0  0  0  0  0  0  0  0  0  0  0
   38.1030   36.1420   12.2600 C   0  0  0  0  0  0  0  0  0  0  0  0
   43.5810   35.7180   16.8600 C   0  0  3  0  0  0  0  0  0  0  0  0
   46.7770   44.3820   15.9000 C   0  0  0  0  0  0  0  0  0  0  0  0
   46.5770   42.8330   13.9760 C   0  0  0  0  0  0  0  0  0  0  0  0
   45.9690   38.8740   17.1070 C   0  0  0  0  0  0  0  0  0  0  0  0
   45.9310   41.2640   15.9140 C   0  0  0  0  0  0  0  0  0  0  0  0
   44.3910   35.6800   17.9940 C   0  0  0  0  0  0  0  0  0  0  0  0
   39.8340   33.8950   15.3720 C   0  0  0  0  0  0  0  0  0  0  0  0
   46.6610   39.0800   18.3210 C   0  0  0  0  0  0  0  0  0  0  0  0
   40.8370   35.9250   12.6350 O   0  0  0  0  0  0  0  0  0  0  0  0
   46.3830   36.7560   18.9980 C   0  0  0  0  0  0  0  0  0  0  0  0
   43.1990   35.6190   14.5160 C   0  0  0  0  0  0  0  0  0  0  0  0
   40.3540   32.9870   16.0590 O   0  0  0  0  0  0  0  0  0  0  0  0
   41.9380   35.2470   15.2340 C   0  0  3  0  0  0  0  0  0  0  0  0
   40.1440   35.6530   13.6390 C   0  0  0  0  0  0  0  0  0  0  0  0
   45.9170   42.2190   16.9710 C   0  0  0  0  0  0  0  0  0  0  0  0
   37.8480   34.9220   14.3770 C   0  0  0  0  0  0  0  0  0  0  0  0
   41.2740   35.5460   17.5650 O   0  0  0  0  0  0  0  0  0  0  0  0
   40.7140   34.8850   14.7030 C   0  0  3  0  0  0  0  0  0  0  0  0
  1 17  2  0  0  0  0
  1 19  1  0  0  0  0
  2 11  1  0  0  0  0
  2 14  1  0  0  0  0
  2 28  1  0  0  0  0
  2 30  1  0  0  0  0
  3 22  1  0  0  0  0
  3 24  2  0  0  0  0
  4  7  2  0  0  0  0
  4 20  1  0  0  0  0
  4 24  1  0  0  0  0
  5 15  1  0  0  0  0
  5 27  1  0  0  0  0
  5 31  2  0  0  0  0
  6 21  1  0  0  0  0
  6 30  2  0  0  0  0
  7 13  1  0  0  0  0
  7 18  1  0  0  0  0
  8 16  2  0  0  0  0
  8 17  1  0  0  0  0
  9 18  1  0  0  0  0
  9 19  1  0  0  0  0
 10 13  1  0  0  0  0
 10 15  1  0  0  0  0
 10 25  1  0  0  0  0
 12 16  1  0  0  0  0
 12 29  2  0  0  0  0
 15 20  1  0  0  0  0
 18 22  2  0  0  0  0
 19 29  1  0  0  0  0
 21 26  2  0  0  0  0
 21 32  1  0  0  0  0
 23 28  2  0  0  0  0
 25 27  1  0  0  0  0
 27 32  1  0  0  0  0
 28 32  1  0  0  0  0
M  END
>  <Original_Directory>
3g0g_A_rec_2oqv_ma9_lig_tt_docked_0_pocket10

>  <Original_Filename>
3g0g_A_rec_2oqv_ma9_lig_tt_docked_0_pocket10_gen_sample_19.sdf

>  <Molecule_ID>
sample_19

>  <logS>
-5.6324902

$$$$