/tmp/tmp6fcwzsq_
  MOE2022           3D

 33 38  0  0  1  0  0  0  0  0999 V2000
   -1.4560   18.9490   24.0260 O   0  0  0  0  0  0  0  0  0  0  0  0
   -5.0180   24.8320   26.5850 C   0  0  0  0  0  0  0  0  0  0  0  0
   -3.7990   21.0060   27.6430 C   0  0  0  0  0  0  0  0  0  0  0  0
   -4.3340   24.6450   27.9360 C   0  0  0  0  0  0  0  0  0  0  0  0
   -4.8850   26.2770   26.1120 C   0  0  3  0  0  0  0  0  0  0  0  0
   -2.4720   25.5970   25.5950 N   0  0  0  0  0  0  0  0  0  0  0  0
   -5.3910   27.1530   27.2720 C   0  0  0  0  0  0  0  0  0  0  0  0
   -3.8010   18.5910   30.2860 C   0  0  0  0  0  0  0  0  0  0  0  0
   -2.3030   20.0240   31.5290 C   0  0  0  0  0  0  0  0  0  0  0  0
   -2.9970   27.4390   27.1490 C   0  0  0  0  0  0  0  0  0  0  0  0
   -2.8810   18.8030   31.2450 C   0  0  0  0  0  0  0  0  0  0  0  0
   -3.4240   26.6690   25.8980 C   0  0  3  0  0  0  0  0  0  0  0  0
   -3.5560   24.9220   23.4300 O   0  0  0  0  0  0  0  0  0  0  0  0
   -2.0480   23.2520   24.4490 O   0  0  0  0  0  0  0  0  0  0  0  0
   -1.8620   20.2290   24.5180 C   0  0  3  0  0  0  0  0  0  0  0  0
   -3.4440   21.5860   29.9270 C   0  0  0  0  0  0  0  0  0  0  0  0
   -1.1150   25.3170   23.5060 O   0  0  0  0  0  0  0  0  0  0  0  0
   -3.1350   20.2630   26.6600 C   0  0  0  0  0  0  0  0  0  0  0  0
   -4.1340   23.2880   28.3350 C   0  0  0  0  0  0  0  0  0  0  0  0
   -4.5070   18.8190   23.8910 O   0  0  0  0  0  0  0  0  0  0  0  0
   -4.3160   22.2690   27.3880 C   0  0  0  0  0  0  0  0  0  0  0  0
   -1.6840   22.4480   23.3200 C   0  0  0  0  0  0  0  0  0  0  0  0
   -4.3400   19.4080   29.3780 N   0  0  0  0  0  0  0  0  0  0  0  0
   -2.3220   24.8000   24.1640 S   0  0  0  0  0  0  0  0  0  0  0  0
   -3.9560   25.8110   28.7940 C   0  0  0  0  0  0  0  0  0  0  0  0
   -3.8660   21.1270   23.3820 C   0  0  0  0  0  0  0  0  0  0  0  0
   -3.1080   20.0950   25.3580 C   0  0  3  0  0  0  0  0  0  0  0  0
   -4.3170   20.1300   24.4440 C   0  0  3  0  0  0  0  0  0  0  0  0
   -4.1460   27.2010   28.1510 C   0  0  3  0  0  0  0  0  0  0  0  0
   -3.7630   22.9230   29.6360 C   0  0  0  0  0  0  0  0  0  0  0  0
   -2.3440   21.0780   23.3360 C   0  0  3  0  0  0  0  0  0  0  0  0
   -2.6470   21.2520   31.0240 C   0  0  0  0  0  0  0  0  0  0  0  0
   -3.8670   20.6180   29.0000 C   0  0  0  0  0  0  0  0  0  0  0  0
  1 15  1  0  0  0  0
  2  4  1  0  0  0  0
  2  5  1  0  0  0  0
  3 18  1  0  0  0  0
  3 21  1  0  0  0  0
  3 33  2  0  0  0  0
  4 19  1  0  0  0  0
  4 25  2  0  0  0  0
  5  7  1  0  0  0  0
  5 12  1  0  0  0  0
  6 12  1  0  0  0  0
  6 24  1  0  0  0  0
  7 29  1  0  0  0  0
  8 11  1  0  0  0  0
  8 23  2  0  0  0  0
  9 11  1  0  0  0  0
  9 32  2  0  0  0  0
 10 12  1  0  0  0  0
 10 29  1  0  0  0  0
 13 24  1  0  0  0  0
 14 22  1  0  0  0  0
 14 24  1  0  0  0  0
 15 27  1  0  0  0  0
 15 31  1  0  0  0  0
 16 30  2  0  0  0  0
 16 32  1  0  0  0  0
 16 33  1  0  0  0  0
 17 24  1  0  0  0  0
 18 27  1  0  0  0  0
 19 21  2  0  0  0  0
 19 30  1  0  0  0  0
 20 28  1  0  0  0  0
 22 31  1  0  0  0  0
 23 33  1  0  0  0  0
 25 29  1  0  0  0  0
 26 28  1  0  0  0  0
 26 31  1  0  0  0  0
 27 28  1  0  0  0  0
M  END
>  <Original_Directory>
4l6c_A_rec_4yik_2o2_lig_tt_min_0_pocket10

>  <Original_Filename>
4l6c_A_rec_4yik_2o2_lig_tt_min_0_pocket10_gen_sample_11.sdf

>  <Molecule_ID>
sample_11

>  <logS>
-3.3018601

$$$$