/tmp/tmpqlof5b0d
  MOE2022           3D

 10 10  0  0  1  0  0  0  0  0999 V2000
   51.1560   42.0520   46.0750 N   0  0  0  0  0  0  0  0  0  0  0  0
   53.2890   42.2890   44.8620 C   0  0  0  0  0  0  0  0  0  0  0  0
   49.9130   42.3640   45.6660 C   0  0  0  0  0  0  0  0  0  0  0  0
   51.9120   41.8930   44.9730 C   0  0  3  0  0  0  0  0  0  0  0  0
   51.3780   41.7500   42.7010 O   0  0  0  0  0  0  0  0  0  0  0  0
   53.6730   43.3700   45.5180 N   0  0  0  0  0  0  0  0  0  0  0  0
   51.1470   42.3930   43.8550 C   0  0  2  0  0  0  0  0  0  0  0  0
   53.8740   42.0200   43.8160 O   0  0  0  0  0  0  0  0  0  0  0  0
   51.5890   43.6490   43.6530 F   0  0  0  0  0  0  0  0  0  0  0  0
   49.8610   42.3670   44.3240 N   0  0  0  0  0  0  0  0  0  0  0  0
  1  3  1  0  0  0  0
  1  4  1  0  0  0  0
  2  4  1  0  0  0  0
  2  6  1  0  0  0  0
  2  8  2  0  0  0  0
  3 10  1  0  0  0  0
  4  7  1  0  0  0  0
  5  7  1  0  0  0  0
  7  9  1  0  0  0  0
  7 10  1  0  0  0  0
M  END
>  <Original_Directory>
3by0_C_rec_3tzs_phu_lig_tt_min_0_pocket10

>  <Original_Filename>
3by0_C_rec_3tzs_phu_lig_tt_min_0_pocket10_gen_sample_11.sdf

>  <Molecule_ID>
sample_11

>  <logS>
0.50961

$$$$