/tmp/tmpymmv8emg
  MOE2022           3D

 25 28  0  0  1  0  0  0  0  0999 V2000
   44.9910   32.0390   12.9680 C   0  0  0  0  0  0  0  0  0  0  0  0
   43.9230   32.0340   13.8580 C   0  0  0  0  0  0  0  0  0  0  0  0
   44.0610   30.0530   11.9370 C   0  0  0  0  0  0  0  0  0  0  0  0
   43.6000   33.0200   14.9230 C   0  0  0  0  0  0  0  0  0  0  0  0
   38.8680   34.1040   15.5390 C   0  0  0  0  0  0  0  0  0  0  0  0
   39.8170   35.9420   14.1740 C   0  0  0  0  0  0  0  0  0  0  0  0
   39.5670   37.1890   13.6460 C   0  0  0  0  0  0  0  0  0  0  0  0
   42.1240   32.7600   15.1150 C   0  0  3  0  0  0  0  0  0  0  0  0
   42.0890   35.8090   13.4100 C   0  0  0  0  0  0  0  0  0  0  0  0
   41.1610   35.6420   14.3620 C   0  0  0  0  0  0  0  0  0  0  0  0
   41.2270   33.6740   15.6710 C   0  0  3  0  0  0  0  0  0  0  0  0
   38.8140   35.0870   14.5610 C   0  0  3  0  0  0  0  0  0  0  0  0
   37.8070   36.7570   12.0760 C   0  0  0  0  0  0  0  0  0  0  0  0
   37.5840   35.1080   13.9280 C   0  0  0  0  0  0  0  0  0  0  0  0
   42.9590   31.0800   13.7510 C   0  0  0  0  0  0  0  0  0  0  0  0
   43.2040   29.9150   13.0290 C   0  0  0  0  0  0  0  0  0  0  0  0
   38.8380   37.4950   12.5310 C   0  0  0  0  0  0  0  0  0  0  0  0
   39.7480   32.5010   16.9330 O   0  0  0  0  0  0  0  0  0  0  0  0
   41.8050   35.7240   16.6050 O   0  0  0  0  0  0  0  0  0  0  0  0
   37.2830   35.7260   12.7640 C   0  0  0  0  0  0  0  0  0  0  0  0
   41.5110   35.0530   15.5720 C   0  0  0  0  0  0  0  0  0  0  0  0
   39.9420   33.3860   16.0590 C   0  0  0  0  0  0  0  0  0  0  0  0
   44.9400   31.1400   11.8990 C   0  0  0  0  0  0  0  0  0  0  0  0
   41.7060   31.4650   14.4620 C   0  0  0  0  0  0  0  0  0  0  0  0
   43.3030   28.6180   13.7910 C   0  0  0  0  0  0  0  0  0  0  0  0
  1  2  1  0  0  0  0
  1 23  2  0  0  0  0
  2  4  1  0  0  0  0
  2 15  2  0  0  0  0
  3 16  2  0  0  0  0
  3 23  1  0  0  0  0
  4  8  1  0  0  0  0
  5 12  1  0  0  0  0
  5 22  1  0  0  0  0
  6  7  2  0  0  0  0
  6 10  1  0  0  0  0
  6 12  1  0  0  0  0
  7 17  1  0  0  0  0
  8 11  1  0  0  0  0
  8 24  1  0  0  0  0
  9 10  2  0  0  0  0
 10 21  1  0  0  0  0
 11 21  1  0  0  0  0
 11 22  1  0  0  0  0
 12 14  1  0  0  0  0
 13 17  2  0  0  0  0
 13 20  1  0  0  0  0
 14 20  2  0  0  0  0
 15 16  1  0  0  0  0
 15 24  1  0  0  0  0
 16 25  1  0  0  0  0
 18 22  2  0  0  0  0
 19 21  2  0  0  0  0
M  END
>  <Original_Directory>
3opm_A_rec_4lko_1wh_lig_tt_min_0_pocket10

>  <Original_Filename>
3opm_A_rec_4lko_1wh_lig_tt_min_0_pocket10_gen_sample_17.sdf

>  <Molecule_ID>
sample_17

>  <logS>
-5.1690602

$$$$