/tmp/tmpb7uyrdzz
  MOE2022           3D

 29 33  0  0  1  0  0  0  0  0999 V2000
    7.6050    7.6150   22.9170 C   0  0  0  0  0  0  0  0  0  0  0  0
    9.5690    0.0100   26.6250 C   0  0  0  0  0  0  0  0  0  0  0  0
    8.7360    8.2730   22.5270 C   0  0  3  0  0  0  0  0  0  0  0  0
   10.3390   -0.4500   25.5040 O   0  0  0  0  0  0  0  0  0  0  0  0
    9.0740    7.2590   24.4250 C   0  0  0  0  0  0  0  0  0  0  0  0
    6.2660    7.5820   17.3660 O   0  0  0  0  0  0  0  0  0  0  0  0
    7.1700    4.9100   18.6190 C   0  0  0  0  0  0  0  0  0  0  0  0
    9.6510    8.0110   23.4540 C   0  0  0  0  0  0  0  0  0  0  0  0
    8.6310    8.4940   21.1970 C   0  0  0  0  0  0  0  0  0  0  0  0
   11.0810    7.7870   25.2050 N   0  0  0  0  0  0  0  0  0  0  0  0
   10.2200   -0.4720   27.8620 C   0  0  0  0  0  0  0  0  0  0  0  0
    8.0630    5.8130   19.4050 C   0  0  0  0  0  0  0  0  0  0  0  0
    7.3940    7.1460   19.4410 C   0  0  3  0  0  0  0  0  0  0  0  0
    6.8050    7.3850   21.8580 N   0  0  0  0  0  0  0  0  0  0  0  0
    9.7180    1.6390   28.9390 C   0  0  0  0  0  0  0  0  0  0  0  0
    9.5600    1.4990   26.5560 C   0  0  0  0  0  0  0  0  0  0  0  0
   10.0620    4.4410   26.4570 C   0  0  0  0  0  0  0  0  0  0  0  0
   10.0310    0.2780   29.0170 C   0  0  0  0  0  0  0  0  0  0  0  0
    6.0800    7.0420   18.6610 C   0  0  0  0  0  0  0  0  0  0  0  0
    8.2630   -0.5040   26.5550 O   0  0  0  0  0  0  0  0  0  0  0  0
    5.0200    7.7010   19.3050 O   0  0  0  0  0  0  0  0  0  0  0  0
    7.8010    6.9920   24.0930 N   0  0  0  0  0  0  0  0  0  0  0  0
   10.1550    6.6490   25.2680 C   0  0  3  0  0  0  0  0  0  0  0  0
    9.3430    3.7620   27.6260 C   0  0  0  0  0  0  0  0  0  0  0  0
   11.0060    8.1830   23.7470 O   0  0  0  0  0  0  0  0  0  0  0  0
    9.5560    2.2640   27.7000 C   0  0  0  0  0  0  0  0  0  0  0  0
    7.5330    7.7790   20.7840 C   0  0  3  0  0  0  0  0  0  0  0  0
    9.7650    5.9540   26.5620 C   0  0  0  0  0  0  0  0  0  0  0  0
    5.8170    5.5540   18.5350 C   0  0  0  0  0  0  0  0  0  0  0  0
  1  3  1  0  0  0  0
  1 14  2  0  0  0  0
  1 22  1  0  0  0  0
  2  4  1  0  0  0  0
  2 11  1  0  0  0  0
  2 16  1  0  0  0  0
  2 20  1  0  0  0  0
  3  8  1  0  0  0  0
  3  9  1  0  0  0  0
  5  8  2  0  0  0  0
  5 22  1  0  0  0  0
  5 23  1  0  0  0  0
  6 19  1  0  0  0  0
  7 12  1  0  0  0  0
  7 29  1  0  0  0  0
  8 25  1  0  0  0  0
  9 27  1  0  0  0  0
 10 23  1  0  0  0  0
 10 25  1  0  0  0  0
 11 18  1  0  0  0  0
 12 13  1  0  0  0  0
 13 19  1  0  0  0  0
 13 27  1  0  0  0  0
 14 27  1  0  0  0  0
 15 18  2  0  0  0  0
 15 26  1  0  0  0  0
 16 26  2  0  0  0  0
 17 24  1  0  0  0  0
 17 28  1  0  0  0  0
 19 21  1  0  0  0  0
 19 29  1  0  0  0  0
 23 28  1  0  0  0  0
 24 26  1  0  0  0  0
M  END
>  <Original_Directory>
1mq5_L_rec_3tk6_d46_lig_tt_docked_0_pocket10

>  <Original_Filename>
1mq5_L_rec_3tk6_d46_lig_tt_docked_0_pocket10_gen_sample_1.sdf

>  <Molecule_ID>
sample_1

>  <logS>
-2.4008601

$$$$