/tmp/tmp1mh2rch_
  MOE2022           3D

 13 13  0  0  1  0  0  0  0  0999 V2000
   31.9120   -2.9420   22.4420 O   0  0  0  0  0  0  0  0  0  0  0  0
   30.3410   -4.5840   21.0210 C   0  0  0  0  0  0  0  0  0  0  0  0
   27.8860   -2.0200   20.3420 O   0  0  0  0  0  0  0  0  0  0  0  0
   28.8750   -5.6700   20.9420 P   0  0  1  0  0  0  0  0  0  0  0  0
   27.9410   -2.3120   21.8030 P   0  0  2  0  0  0  0  0  0  0  0  0
   30.2530   -4.3540   23.6430 O   0  0  0  0  0  0  0  0  0  0  0  0
   27.1910   -1.3430   22.6660 O   0  0  0  0  0  0  0  0  0  0  0  0
   28.9720   -6.5540   22.1250 O   0  0  0  0  0  0  0  0  0  0  0  0
   29.4460   -2.3830   22.2860 O   0  0  0  0  0  0  0  0  0  0  0  0
   30.5430   -3.5020   22.4610 P   0  0  1  0  0  0  0  0  0  0  0  0
   27.3660   -3.7800   22.0040 O   0  0  0  0  0  0  0  0  0  0  0  0
   27.3430   -4.8140   21.0650 C   0  0  0  0  0  0  0  0  0  0  0  0
   28.8820   -6.3070   19.6000 O   0  0  0  0  0  0  0  0  0  0  0  0
  1 10  2  0  0  0  0
  2  4  1  0  0  0  0
  2 10  1  0  0  0  0
  3  5  2  0  0  0  0
  4  8  1  0  0  0  0
  4 12  1  0  0  0  0
  4 13  2  0  0  0  0
  5  7  1  0  0  0  0
  5  9  1  0  0  0  0
  5 11  1  0  0  0  0
  6 10  1  0  0  0  0
  9 10  1  0  0  0  0
 11 12  1  0  0  0  0
M  END
>  <Original_Directory>
4ktv_A_rec_5a19_ppk_lig_tt_docked_5_pocket10

>  <Original_Filename>
4ktv_A_rec_5a19_ppk_lig_tt_docked_5_pocket10_gen_sample_1.sdf

>  <Molecule_ID>
sample_1

>  <logS>
1.9652801

$$$$