/tmp/tmp5t95fy8o
  MOE2022           3D

 20 21  0  0  0  0  0  0  0  0999 V2000
   16.3030  -34.4560   26.5000 O   0  0  0  0  0  0  0  0  0  0  0  0
   14.7500  -33.8400   24.8280 N   0  0  0  0  0  0  0  0  0  0  0  0
   16.5290  -29.8900   24.6440 C   0  0  0  0  0  0  0  0  0  0  0  0
   15.8000  -35.5800   23.2220 O   0  0  0  0  0  0  0  0  0  0  0  0
   15.6200  -32.1630   26.1140 C   0  0  0  0  0  0  0  0  0  0  0  0
   15.7890  -33.6550   25.7470 C   0  0  0  0  0  0  0  0  0  0  0  0
   14.5090  -31.7400   25.4980 N   0  0  0  0  0  0  0  0  0  0  0  0
   15.9610  -33.1470   22.6340 O   0  0  0  0  0  0  0  0  0  0  0  0
   14.7130  -29.9180   22.9270 C   0  0  0  0  0  0  0  0  0  0  0  0
   15.9790  -27.7260   22.4260 C   0  0  0  0  0  0  0  0  0  0  0  0
   16.3910  -31.5910   26.8680 O   0  0  0  0  0  0  0  0  0  0  0  0
   13.7170  -32.8380   24.9960 C   0  0  0  0  0  0  0  0  0  0  0  0
   13.1680  -29.9800   25.8000 O   0  0  0  0  0  0  0  0  0  0  0  0
   15.0530  -29.5910   24.3750 C   0  0  0  0  0  0  0  0  0  0  0  0
   15.3840  -27.1480   23.6890 C   0  0  0  0  0  0  0  0  0  0  0  0
   14.1760  -30.4360   25.2960 C   0  0  0  0  0  0  0  0  0  0  0  0
   15.4400  -29.0540   21.9250 C   0  0  0  0  0  0  0  0  0  0  0  0
   15.1170  -34.2420   23.2070 P   0  0  0  0  0  0  0  0  0  0  0  0
   14.7330  -28.1260   24.6510 C   0  0  0  0  0  0  0  0  0  0  0  0
   13.8030  -34.3180   22.4470 O   0  0  0  0  0  0  0  0  0  0  0  0
  1  6  2  0  0  0  0
  2  6  1  0  0  0  0
  2 12  1  0  0  0  0
  2 18  1  0  0  0  0
  3 14  1  0  0  0  0
  4 18  1  0  0  0  0
  5  6  1  0  0  0  0
  5  7  1  0  0  0  0
  5 11  2  0  0  0  0
  7 12  1  0  0  0  0
  7 16  1  0  0  0  0
  8 18  1  0  0  0  0
  9 14  1  0  0  0  0
  9 17  1  0  0  0  0
 10 15  1  0  0  0  0
 10 17  1  0  0  0  0
 13 16  2  0  0  0  0
 14 16  1  0  0  0  0
 14 19  1  0  0  0  0
 15 19  1  0  0  0  0
 18 20  2  0  0  0  0
M  END
>  <Original_Directory>
3cp6_A_rec_4qpf_39l_lig_tt_docked_1_pocket10

>  <Original_Filename>
3cp6_A_rec_4qpf_39l_lig_tt_docked_1_pocket10_gen_sample_17.sdf

>  <Molecule_ID>
sample_17

>  <logS>
-1.46404

$$$$