/tmp/tmpxn0a0878
  MOE2022           3D

 20 22  0  0  1  0  0  0  0  0999 V2000
   13.6770  -33.1800   23.9180 C   0  0  0  0  0  0  0  0  0  0  0  0
   13.5130  -32.4230   25.0170 N   0  0  0  0  0  0  0  0  0  0  0  0
   17.2990  -34.9520   27.3050 C   0  0  0  0  0  0  0  0  0  0  0  0
   16.7660  -35.2970   24.9860 C   0  0  0  0  0  0  0  0  0  0  0  0
   13.0350  -32.9400   22.8950 O   0  0  0  0  0  0  0  0  0  0  0  0
   14.9890  -30.4700   24.5390 N   0  0  0  0  0  0  0  0  0  0  0  0
   17.5480  -35.5940   26.0980 C   0  0  0  0  0  0  0  0  0  0  0  0
   14.5010  -29.3730   23.6600 C   0  0  0  0  0  0  0  0  0  0  0  0
   13.5640  -28.9730   26.4740 C   0  0  0  0  0  0  0  0  0  0  0  0
   15.6740  -34.4360   25.0820 C   0  0  0  0  0  0  0  0  0  0  0  0
   16.2660  -34.0220   27.3910 C   0  0  0  0  0  0  0  0  0  0  0  0
   13.0140  -30.2600   26.0110 N   0  0  0  0  0  0  0  0  0  0  0  0
   13.8400  -35.5600   24.0260 O   0  0  0  0  0  0  0  0  0  0  0  0
   14.6750  -28.1460   24.4670 N   0  0  0  0  0  0  0  0  0  0  0  0
   15.2890  -34.3960   22.6620 N   0  0  0  0  0  0  0  0  0  0  0  0
   14.9160  -28.5710   25.8670 C   0  0  3  0  0  0  0  0  0  0  0  0
   14.6380  -34.4070   23.9580 C   0  0  1  0  0  0  0  0  0  0  0  0
   13.8080  -31.0870   25.1880 C   0  0  0  0  0  0  0  0  0  0  0  0
   15.7120  -29.8680   25.7050 C   0  0  0  0  0  0  0  0  0  0  0  0
   15.5170  -33.7090   26.2610 C   0  0  0  0  0  0  0  0  0  0  0  0
  1  2  1  0  0  0  0
  1  5  2  0  0  0  0
  1 17  1  0  0  0  0
  2 18  1  0  0  0  0
  3  7  2  0  0  0  0
  3 11  1  0  0  0  0
  4  7  1  0  0  0  0
  4 10  2  0  0  0  0
  6  8  1  0  0  0  0
  6 18  1  0  0  0  0
  6 19  1  0  0  0  0
  8 14  1  0  0  0  0
  9 12  1  0  0  0  0
  9 16  1  0  0  0  0
 10 17  1  0  0  0  0
 10 20  1  0  0  0  0
 11 20  2  0  0  0  0
 12 18  2  0  0  0  0
 13 17  1  0  0  0  0
 14 16  1  0  0  0  0
 15 17  1  0  0  0  0
 16 19  1  0  0  0  0
M  END
>  <Original_Directory>
3cp6_A_rec_4qpf_39l_lig_tt_docked_1_pocket10

>  <Original_Filename>
3cp6_A_rec_4qpf_39l_lig_tt_docked_1_pocket10_gen_sample_7.sdf

>  <Molecule_ID>
sample_7

>  <logS>
-1.06322

$$$$