/tmp/tmpucp3_qg0
  MOE2022           3D

 13 13  0  0  1  0  0  0  0  0999 V2000
  -25.9530    0.6360  -17.9830 O   0  0  0  0  0  0  0  0  0  0  0  0
  -28.3760   -1.6720  -14.6510 C   0  0  3  0  0  0  0  0  0  0  0  0
  -24.6320    0.2640  -16.2350 O   0  0  0  0  0  0  0  0  0  0  0  0
  -25.7200    0.1500  -16.8370 C   0  0  0  0  0  0  0  0  0  0  0  0
  -28.7450    0.6750  -15.4000 N   0  0  0  0  0  0  0  0  0  0  0  0
  -26.8360   -0.6370  -16.1930 C   0  0  3  0  0  0  0  0  0  0  0  0
  -28.0190   -2.6920  -15.7340 C   0  0  0  0  0  0  0  0  0  0  0  0
  -26.2260   -2.6360  -17.4220 O   0  0  0  0  0  0  0  0  0  0  0  0
  -27.7510   -0.3260  -15.0320 C   0  0  3  0  0  0  0  0  0  0  0  0
  -29.1770   -3.2990  -16.2660 O   0  0  0  0  0  0  0  0  0  0  0  0
  -29.8020   -1.5770  -14.4840 O   0  0  0  0  0  0  0  0  0  0  0  0
  -27.2850   -1.9190  -16.8150 C   0  0  3  0  0  0  0  0  0  0  0  0
  -27.2120   -3.7130  -15.2000 O   0  0  0  0  0  0  0  0  0  0  0  0
  1  4  2  0  0  0  0
  2  7  1  0  0  0  0
  2  9  1  0  0  0  0
  2 11  1  0  0  0  0
  3  4  1  0  0  0  0
  4  6  1  0  0  0  0
  5  9  1  0  0  0  0
  6  9  1  0  0  0  0
  6 12  1  0  0  0  0
  7 10  1  0  0  0  0
  7 12  1  0  0  0  0
  7 13  1  0  0  0  0
  8 12  1  0  0  0  0
M  END
>  <Original_Directory>
3kef_A_rec_3uv7_0cn_lig_tt_docked_1_pocket10

>  <Original_Filename>
3kef_A_rec_3uv7_0cn_lig_tt_docked_1_pocket10_gen_sample_7.sdf

>  <Molecule_ID>
sample_7

>  <logS>
1.5711401

$$$$