
  MOE2022           3D

 17 19  0  0  1  0  0  0  0  0999 V2000
  126.8770  -23.5510   37.3030 C   0  0  0  0  0  0  0  0  0  0  0  0
  128.3470  -24.3070   40.5350 C   0  0  3  0  0  0  0  0  0  0  0  0
  126.1460  -24.4940   39.4110 C   0  0  0  0  0  0  0  0  0  0  0  0
  130.7420  -23.2630   43.6910 N   0  0  0  0  0  0  0  0  0  0  0  0
  130.5250  -23.5410   41.3150 C   0  0  0  0  0  0  0  0  0  0  0  0
  126.9970  -27.4610   40.0250 O   0  0  0  0  0  0  0  0  0  0  0  0
  130.2510  -24.1900   42.6910 C   0  0  1  0  0  0  0  0  0  0  0  0
  128.1280  -25.3610   38.3010 C   0  0  0  0  0  0  0  0  0  0  0  0
  127.3260  -26.3770   40.4420 C   0  0  0  0  0  0  0  0  0  0  0  0
  128.0300  -24.3160   37.3640 C   0  0  0  0  0  0  0  0  0  0  0  0
  127.9600  -24.7210   41.8890 C   0  0  3  0  0  0  0  0  0  0  0  0
  127.6960  -26.1390   41.7430 N   0  0  0  0  0  0  0  0  0  0  0  0
  130.8180  -25.4380   42.8190 O   0  0  0  0  0  0  0  0  0  0  0  0
  125.8960  -23.7140   38.2760 C   0  0  0  0  0  0  0  0  0  0  0  0
  127.4850  -25.1030   39.6220 C   0  0  1  0  0  0  0  0  0  0  0  0
  129.6030  -23.7470   40.3450 C   0  0  0  0  0  0  0  0  0  0  0  0
  128.8190  -24.3000   42.9280 O   0  0  0  0  0  0  0  0  0  0  0  0
  1 10  2  0  0  0  0
  1 14  1  0  0  0  0
  2 11  1  0  0  0  0
  2 15  1  0  0  0  0
  2 16  1  0  0  0  0
  3 14  2  0  0  0  0
  3 15  1  0  0  0  0
  4  7  1  0  0  0  0
  5  7  1  0  0  0  0
  5 16  2  0  0  0  0
  6  9  2  0  0  0  0
  7 13  1  0  0  0  0
  7 17  1  0  0  0  0
  8 10  1  0  0  0  0
  8 15  1  0  0  0  0
  9 12  1  0  0  0  0
  9 15  1  0  0  0  0
 11 12  1  0  0  0  0
 11 17  1  0  0  0  0
M  END
>  <Original_Directory>
4dqi_A_rec_3ez5_dad_lig_tt_docked_0_pocket10

>  <Original_Filename>
4dqi_A_rec_3ez5_dad_lig_tt_docked_0_pocket10_gen_sample_9.sdf

>  <Molecule_ID>
sample_9

>  <logS>
-0.62063998

$$$$