/tmp/tmpn_be2twz
  MOE2022           3D

  9  9  0  0  1  0  0  0  0  0999 V2000
   13.9750   10.8260    6.4940 C   0  0  0  0  0  0  0  0  0  0  0  0
   13.5480   11.0740    5.0560 C   0  0  0  0  0  0  0  0  0  0  0  0
   15.8070    9.3300    5.6870 C   0  0  0  0  0  0  0  0  0  0  0  0
   15.2330    9.4810    8.0150 O   0  0  0  0  0  0  0  0  0  0  0  0
   13.9920   10.6750    2.6860 O   0  0  0  0  0  0  0  0  0  0  0  0
   14.6550    9.4790    6.7010 C   0  0  3  0  0  0  0  0  0  0  0  0
   14.5440   10.6390    3.9900 C   0  0  3  0  0  0  0  0  0  0  0  0
   15.1610    9.2730    4.2920 C   0  0  3  0  0  0  0  0  0  0  0  0
   16.1380    8.9840    3.2890 O   0  0  0  0  0  0  0  0  0  0  0  0
  1  2  1  0  0  0  0
  1  6  1  0  0  0  0
  2  7  1  0  0  0  0
  3  6  1  0  0  0  0
  3  8  1  0  0  0  0
  4  6  1  0  0  0  0
  5  7  1  0  0  0  0
  7  8  1  0  0  0  0
  8  9  1  0  0  0  0
M  END
>  <Original_Directory>
4o18_B_rec_3dkj_unu_lig_tt_docked_1_pocket10

>  <Original_Filename>
4o18_B_rec_3dkj_unu_lig_tt_docked_1_pocket10_gen_sample_15.sdf

>  <Molecule_ID>
sample_15

>  <logS>
0.26293001

$$$$