/tmp/tmpnmg87bnm
  MOE2022           3D

  9  9  0  0  0  0  0  0  0  0999 V2000
   15.8940    8.6620    3.3040 C   0  0  0  0  0  0  0  0  0  0  0  0
   13.6090    9.0100    2.6240 C   0  0  0  0  0  0  0  0  0  0  0  0
   15.1330    8.4300    6.7170 N   0  0  0  0  0  0  0  0  0  0  0  0
   14.9620    8.7330    2.3220 C   0  0  0  0  0  0  0  0  0  0  0  0
   15.9320    8.9430    4.5840 N   0  0  0  0  0  0  0  0  0  0  0  0
   14.9380    8.9570    5.4840 C   0  0  0  0  0  0  0  0  0  0  0  0
   13.6340    9.4380    5.1310 C   0  0  0  0  0  0  0  0  0  0  0  0
   13.2130    9.5350    3.8170 C   0  0  0  0  0  0  0  0  0  0  0  0
   12.7570    9.7960    6.1030 N   0  0  0  0  0  0  0  0  0  0  0  0
  1  4  2  0  0  0  0
  1  5  1  0  0  0  0
  2  4  1  0  0  0  0
  2  8  2  0  0  0  0
  3  6  1  0  0  0  0
  5  6  1  0  0  0  0
  6  7  2  0  0  0  0
  7  8  1  0  0  0  0
  7  9  1  0  0  0  0
M  END
>  <Original_Directory>
4o18_B_rec_3dkj_unu_lig_tt_docked_1_pocket10

>  <Original_Filename>
4o18_B_rec_3dkj_unu_lig_tt_docked_1_pocket10_gen_sample_13.sdf

>  <Molecule_ID>
sample_13

>  <logS>
-0.36030999

$$$$