/tmp/tmp31g6ewk1
  MOE2022           3D

 29 31  0  0  1  0  0  0  0  0999 V2000
  -14.3370   17.1980    3.9390 C   0  0  0  0  0  0  0  0  0  0  0  0
  -14.1480   18.5760    3.8320 C   0  0  0  0  0  0  0  0  0  0  0  0
  -13.6290   17.0760   15.2310 C   0  0  0  0  0  0  0  0  0  0  0  0
  -13.3300   14.8940    4.2870 C   0  0  0  0  0  0  0  0  0  0  0  0
  -16.8160   17.7870   15.0500 N   0  0  0  0  0  0  0  0  0  0  0  0
  -10.6750   20.1790    8.5120 C   0  0  0  0  0  0  0  0  0  0  0  0
  -12.9530   19.1460    4.2500 C   0  0  0  0  0  0  0  0  0  0  0  0
  -11.0820   20.9900    7.4540 C   0  0  0  0  0  0  0  0  0  0  0  0
  -13.6680   14.4030    5.5420 O   0  0  0  0  0  0  0  0  0  0  0  0
  -14.3120   14.5450    3.4180 O   0  0  0  0  0  0  0  0  0  0  0  0
  -11.6660   18.9890    6.2520 C   0  0  0  0  0  0  0  0  0  0  0  0
  -11.5350   20.3790    6.2990 C   0  0  0  0  0  0  0  0  0  0  0  0
  -13.2820   16.4060    4.3790 C   0  0  0  0  0  0  0  0  0  0  0  0
  -15.6750   18.5620   14.8890 C   0  0  0  0  0  0  0  0  0  0  0  0
  -11.6820   18.2650   12.1980 C   0  0  0  0  0  0  0  0  0  0  0  0
  -14.4120   18.0840   14.4450 C   0  0  3  0  0  0  0  0  0  0  0  0
  -18.0830   18.0690   14.7460 C   0  0  0  0  0  0  0  0  0  0  0  0
  -10.7500   18.7830    8.3640 C   0  0  0  0  0  0  0  0  0  0  0  0
  -12.2870   18.7470   13.4980 C   0  0  0  0  0  0  0  0  0  0  0  0
  -10.2420   19.2250   10.4770 C   0  0  3  0  0  0  0  0  0  0  0  0
  -10.2170   20.4600    9.8230 C   0  0  0  0  0  0  0  0  0  0  0  0
  -12.1400   16.9950    4.8970 C   0  0  0  0  0  0  0  0  0  0  0  0
  -10.3750   18.1750    9.5680 C   0  0  0  0  0  0  0  0  0  0  0  0
  -19.0580   17.6570   14.3520 O   0  0  0  0  0  0  0  0  0  0  0  0
  -12.1880   14.3730    3.8490 O   0  0  0  0  0  0  0  0  0  0  0  0
  -10.4170   19.0690   11.9510 C   0  0  0  0  0  0  0  0  0  0  0  0
  -12.1040   18.3760    5.0540 C   0  0  0  0  0  0  0  0  0  0  0  0
  -13.7390   18.8240   13.4730 N   0  0  0  0  0  0  0  0  0  0  0  0
  -11.2530   18.1980    7.2640 N   0  0  0  0  0  0  0  0  0  0  0  0
  1  2  1  0  0  0  0
  1 13  2  0  0  0  0
  2  7  2  0  0  0  0
  3 16  1  0  0  0  0
  4  9  1  0  0  0  0
  4 10  1  0  0  0  0
  4 13  1  0  0  0  0
  4 25  1  0  0  0  0
  5 14  1  0  0  0  0
  5 17  1  0  0  0  0
  6  8  2  0  0  0  0
  6 18  1  0  0  0  0
  6 21  1  0  0  0  0
  7 27  1  0  0  0  0
  8 12  1  0  0  0  0
 11 12  2  0  0  0  0
 11 27  1  0  0  0  0
 11 29  1  0  0  0  0
 13 22  1  0  0  0  0
 14 16  1  0  0  0  0
 15 19  1  0  0  0  0
 15 26  1  0  0  0  0
 16 28  1  0  0  0  0
 17 24  2  0  0  0  0
 18 23  1  0  0  0  0
 18 29  2  0  0  0  0
 19 28  1  0  0  0  0
 20 21  1  0  0  0  0
 20 23  1  0  0  0  0
 20 26  1  0  0  0  0
 22 27  2  0  0  0  0
M  END
>  <Original_Directory>
2g5n_A_rec_2zfs_12u_lig_tt_min_0_pocket10

>  <Original_Filename>
2g5n_A_rec_2zfs_12u_lig_tt_min_0_pocket10_gen_sample_5.sdf

>  <Molecule_ID>
sample_5

>  <logS>
-3.0144701

$$$$