/tmp/tmpwuqf18i6
  MOE2022           3D

 30 35  0  0  1  0  0  0  0  0999 V2000
  -30.4500   14.7980  -20.2010 C   0  0  0  0  0  0  0  0  0  0  0  0
  -29.2390   10.0950  -17.9050 C   0  0  3  0  0  0  0  0  0  0  0  0
  -23.8680    7.7770  -14.1880 C   0  0  3  0  0  0  0  0  0  0  0  0
  -24.7400    8.8840  -14.7920 C   0  0  0  0  0  0  0  0  0  0  0  0
  -24.3800    6.4930  -17.3820 O   0  0  0  0  0  0  0  0  0  0  0  0
  -24.1950    6.5180  -14.9720 C   0  0  2  0  0  0  0  0  0  0  0  0
  -30.0060   13.5360  -20.4440 N   0  0  0  0  0  0  0  0  0  0  0  0
  -25.3430    5.7460  -14.3290 C   0  0  0  0  0  0  0  0  0  0  0  0
  -30.6750   10.5240  -18.1460 C   0  0  0  0  0  0  0  0  0  0  0  0
  -29.5150   15.5300  -22.2870 C   0  0  0  0  0  0  0  0  0  0  0  0
  -26.8830   10.8880  -17.7430 C   0  0  0  0  0  0  0  0  0  0  0  0
  -24.1720   10.2110  -17.7110 C   0  0  0  0  0  0  0  0  0  0  0  0
  -29.8270   12.6240  -19.3130 C   0  0  3  0  0  0  0  0  0  0  0  0
  -30.8980   11.5420  -19.2490 C   0  0  0  0  0  0  0  0  0  0  0  0
  -28.4390   11.9840  -19.3520 C   0  0  3  0  0  0  0  0  0  0  0  0
  -28.3080   11.3000  -17.9970 C   0  0  3  0  0  0  0  0  0  0  0  0
  -24.6870    5.2880  -13.0250 C   0  0  0  0  0  0  0  0  0  0  0  0
  -25.1880    9.1330  -17.3600 C   0  0  3  0  0  0  0  0  0  0  0  0
  -30.1930   15.8170  -21.1060 C   0  0  0  0  0  0  0  0  0  0  0  0
  -27.4400   12.9690  -19.5510 O   0  0  0  0  0  0  0  0  0  0  0  0
  -29.1840   14.2030  -22.5740 C   0  0  0  0  0  0  0  0  0  0  0  0
  -29.6060   13.1980  -21.7110 C   0  0  0  0  0  0  0  0  0  0  0  0
  -27.6540    8.7850  -16.5330 C   0  0  0  0  0  0  0  0  0  0  0  0
  -22.9730    5.6450  -14.7080 C   0  0  0  0  0  0  0  0  0  0  0  0
  -29.0240    9.4670  -16.5240 C   0  0  0  0  0  0  0  0  0  0  0  0
  -23.2650    7.2200  -12.9030 C   0  0  0  0  0  0  0  0  0  0  0  0
  -23.2140    5.7000  -13.1840 C   0  0  3  0  0  0  0  0  0  0  0  0
  -26.5910    9.6470  -17.1650 C   0  0  0  0  0  0  0  0  0  0  0  0
  -24.4830    7.0700  -16.3240 C   0  0  0  0  0  0  0  0  0  0  0  0
  -24.8310    8.3640  -16.1800 N   0  0  0  0  0  0  0  0  0  0  0  0
  1  7  1  0  0  0  0
  1 19  1  0  0  0  0
  2  9  1  0  0  0  0
  2 16  1  0  0  0  0
  2 25  1  0  0  0  0
  3  4  1  0  0  0  0
  3  6  1  0  0  0  0
  3 26  1  0  0  0  0
  4 30  1  0  0  0  0
  5 29  2  0  0  0  0
  6  8  1  0  0  0  0
  6 24  1  0  0  0  0
  6 29  1  0  0  0  0
  7 13  1  0  0  0  0
  7 22  1  0  0  0  0
  8 17  1  0  0  0  0
  9 14  1  0  0  0  0
 10 19  2  0  0  0  0
 10 21  1  0  0  0  0
 11 16  1  0  0  0  0
 11 28  2  0  0  0  0
 12 18  1  0  0  0  0
 13 14  1  0  0  0  0
 13 15  1  0  0  0  0
 15 16  1  0  0  0  0
 15 20  1  0  0  0  0
 17 27  1  0  0  0  0
 18 28  1  0  0  0  0
 18 30  1  0  0  0  0
 21 22  2  0  0  0  0
 23 25  1  0  0  0  0
 23 28  1  0  0  0  0
 24 27  1  0  0  0  0
 26 27  1  0  0  0  0
 29 30  1  0  0  0  0
M  END
>  <Original_Directory>
3zso_A_rec_4cgg_k5q_lig_tt_min_0_pocket10

>  <Original_Filename>
3zso_A_rec_4cgg_k5q_lig_tt_min_0_pocket10_gen_sample_3.sdf

>  <Molecule_ID>
sample_3

>  <logS>
-3.71769

$$$$