/tmp/tmpnni791jy
  MOE2022           3D

 39 44  0  0  1  0  0  0  0  0999 V2000
    9.5340  -14.4520   13.7410 C   0  0  0  0  0  0  0  0  0  0  0  0
   13.9090  -11.1270   19.4770 C   0  0  0  0  0  0  0  0  0  0  0  0
    8.7720  -15.3430    8.2950 O   0  0  0  0  0  0  0  0  0  0  0  0
   15.9310  -13.4040    6.3700 C   0  0  0  0  0  0  0  0  0  0  0  0
   15.7990  -15.3350    4.9120 C   0  0  0  0  0  0  0  0  0  0  0  0
   14.8990  -10.5060   14.3130 C   0  0  0  0  0  0  0  0  0  0  0  0
   13.9140  -11.6090   15.4260 S   0  0  0  0  0  0  0  0  0  0  0  0
   12.7300  -11.7960   19.8290 C   0  0  0  0  0  0  0  0  0  0  0  0
   14.2530  -10.9630   18.1250 C   0  0  0  0  0  0  0  0  0  0  0  0
   10.5390  -15.3960   11.6070 C   0  0  0  0  0  0  0  0  0  0  0  0
   17.5780  -12.0210   10.2280 N   0  0  0  0  0  0  0  0  0  0  0  0
   17.0710  -11.9210   11.5680 C   0  0  0  0  0  0  0  0  0  0  0  0
   10.3470  -14.9910   14.7570 C   0  0  0  0  0  0  0  0  0  0  0  0
   12.1040  -11.8840   17.5030 C   0  0  0  0  0  0  0  0  0  0  0  0
   17.2350  -13.7980    6.7500 C   0  0  0  0  0  0  0  0  0  0  0  0
   16.3050  -12.6080   13.5070 C   0  0  0  0  0  0  0  0  0  0  0  0
   10.2420  -15.8420   10.1880 C   0  0  0  0  0  0  0  0  0  0  0  0
    8.0490  -15.3150   11.9730 C   0  0  0  0  0  0  0  0  0  0  0  0
   10.3940  -12.8290   15.8280 C   0  0  0  0  0  0  0  0  0  0  0  0
    9.3130  -12.4340   15.0390 C   0  0  0  0  0  0  0  0  0  0  0  0
   11.8770  -12.2530   18.8300 C   0  0  0  0  0  0  0  0  0  0  0  0
   17.1120  -12.9760   12.4650 N   0  0  0  0  0  0  0  0  0  0  0  0
    9.3420  -15.1070   12.4520 C   0  0  0  0  0  0  0  0  0  0  0  0
   17.8960  -14.7720    5.9770 C   0  0  0  0  0  0  0  0  0  0  0  0
   15.8650  -11.2500   13.3530 C   0  0  0  0  0  0  0  0  0  0  0  0
    8.8960  -13.2390   13.9900 C   0  0  0  0  0  0  0  0  0  0  0  0
   14.7440  -13.1880   15.5350 C   0  0  0  0  0  0  0  0  0  0  0  0
   17.1760  -15.5320    5.0450 C   0  0  0  0  0  0  0  0  0  0  0  0
    9.0030  -15.1000    9.6750 C   0  0  3  0  0  0  0  0  0  0  0  0
    7.8260  -15.5870   10.5070 C   0  0  3  0  0  0  0  0  0  0  0  0
   10.7640  -14.1810   15.8150 C   0  0  0  0  0  0  0  0  0  0  0  0
    6.6020  -15.0380   10.0640 O   0  0  0  0  0  0  0  0  0  0  0  0
   15.2320  -14.1600    5.4200 C   0  0  0  0  0  0  0  0  0  0  0  0
   13.4090  -11.4680   17.1370 C   0  0  0  0  0  0  0  0  0  0  0  0
   17.0170  -12.9590    9.2350 C   0  0  0  0  0  0  0  0  0  0  0  0
   17.9040  -13.2530    8.0230 C   0  0  0  0  0  0  0  0  0  0  0  0
   16.3940  -10.8050   12.1250 C   0  0  0  0  0  0  0  0  0  0  0  0
   15.7780  -13.5940   14.5030 C   0  0  0  0  0  0  0  0  0  0  0  0
   11.0570  -11.8200   16.5590 C   0  0  0  0  0  0  0  0  0  0  0  0
  1 13  1  0  0  0  0
  1 23  1  0  0  0  0
  1 26  2  0  0  0  0
  2  8  2  0  0  0  0
  2  9  1  0  0  0  0
  3 29  1  0  0  0  0
  4 15  2  0  0  0  0
  4 33  1  0  0  0  0
  5 28  1  0  0  0  0
  5 33  2  0  0  0  0
  6  7  1  0  0  0  0
  6 25  1  0  0  0  0
  7 27  1  0  0  0  0
  7 34  1  0  0  0  0
  8 21  1  0  0  0  0
  9 34  2  0  0  0  0
 10 17  1  0  0  0  0
 10 23  1  0  0  0  0
 11 12  1  0  0  0  0
 11 35  2  0  0  0  0
 12 22  2  0  0  0  0
 12 37  1  0  0  0  0
 13 31  2  0  0  0  0
 14 21  2  0  0  0  0
 14 34  1  0  0  0  0
 14 39  1  0  0  0  0
 15 24  1  0  0  0  0
 15 36  1  0  0  0  0
 16 22  1  0  0  0  0
 16 25  2  0  0  0  0
 16 38  1  0  0  0  0
 17 29  1  0  0  0  0
 18 23  2  0  0  0  0
 18 30  1  0  0  0  0
 19 20  2  0  0  0  0
 19 31  1  0  0  0  0
 19 39  1  0  0  0  0
 20 26  1  0  0  0  0
 24 28  2  0  0  0  0
 25 37  1  0  0  0  0
 27 38  2  0  0  0  0
 29 30  1  0  0  0  0
 30 32  1  0  0  0  0
 35 36  1  0  0  0  0
M  END
>  <Original_Directory>
6eo9_H_rec_5a2m_wx5_lig_tt_min_0_pocket10

>  <Original_Filename>
6eo9_H_rec_5a2m_wx5_lig_tt_min_0_pocket10_gen_sample_7.sdf

>  <Molecule_ID>
sample_7

>  <logS>
-7.84869

$$$$