/tmp/tmp2zk8t4r4
  MOE2022           3D

 30 35  0  0  1  0  0  0  0  0999 V2000
    9.3230  -14.6870  -11.8620 O   0  0  0  0  0  0  0  0  0  0  0  0
    5.1090  -14.1750  -13.7220 C   0  0  0  0  0  0  0  0  0  0  0  0
    7.0190  -15.3580  -13.9060 C   0  0  0  0  0  0  0  0  0  0  0  0
    1.0640  -15.2750  -17.6600 C   0  0  0  0  0  0  0  0  0  0  0  0
    2.1030  -14.6580  -16.9720 C   0  0  0  0  0  0  0  0  0  0  0  0
    2.4970  -17.1730  -18.1090 C   0  0  0  0  0  0  0  0  0  0  0  0
    2.8030  -18.3100  -18.8380 C   0  0  0  0  0  0  0  0  0  0  0  0
   10.2390  -16.9680  -14.5810 C   0  0  0  0  0  0  0  0  0  0  0  0
   10.5670  -16.2800  -13.2470 C   0  0  0  0  0  0  0  0  0  0  0  0
    4.7190  -12.7990  -10.9700 C   0  0  0  0  0  0  0  0  0  0  0  0
    2.1340  -19.3310  -19.4030 C   0  0  0  0  0  0  0  0  0  0  0  0
    0.8540  -19.3070  -19.9600 C   0  0  0  0  0  0  0  0  0  0  0  0
    9.6390  -14.7430  -15.5250 C   0  0  0  0  0  0  0  0  0  0  0  0
    1.2580  -16.5270  -18.2630 C   0  0  0  0  0  0  0  0  0  0  0  0
    9.0900  -16.1180  -15.1390 C   0  0  0  0  0  0  0  0  0  0  0  0
    3.5130  -16.5750  -17.3620 C   0  0  0  0  0  0  0  0  0  0  0  0
    6.3940  -15.3930  -15.1520 O   0  0  0  0  0  0  0  0  0  0  0  0
    6.2330  -14.6050  -13.0080 C   0  0  0  0  0  0  0  0  0  0  0  0
    9.9350  -14.0740  -14.1690 C   0  0  0  0  0  0  0  0  0  0  0  0
    8.3660  -15.8330  -13.8360 C   0  0  3  0  0  0  0  0  0  0  0  0
    3.2650  -15.3820  -16.6750 C   0  0  0  0  0  0  0  0  0  0  0  0
    4.1930  -14.8820  -15.8450 N   0  0  0  0  0  0  0  0  0  0  0  0
    5.8080  -13.6170  -10.8350 C   0  0  0  0  0  0  0  0  0  0  0  0
    9.5480  -15.1660  -13.1640 C   0  0  0  0  0  0  0  0  0  0  0  0
    6.5020  -14.3460  -11.7040 N   0  0  0  0  0  0  0  0  0  0  0  0
    0.1980  -17.1530  -18.9060 C   0  0  0  0  0  0  0  0  0  0  0  0
    5.1240  -14.8810  -14.9220 C   0  0  3  0  0  0  0  0  0  0  0  0
    4.1200  -13.2750  -13.3290 C   0  0  0  0  0  0  0  0  0  0  0  0
    3.9460  -12.6670  -12.1230 C   0  0  0  0  0  0  0  0  0  0  0  0
    0.0530  -18.2030  -19.7430 C   0  0  0  0  0  0  0  0  0  0  0  0
  1 24  1  0  0  0  0
  2 18  1  0  0  0  0
  2 27  1  0  0  0  0
  2 28  2  0  0  0  0
  3 17  1  0  0  0  0
  3 18  2  0  0  0  0
  3 20  1  0  0  0  0
  4  5  1  0  0  0  0
  4 14  2  0  0  0  0
  5 21  1  0  0  0  0
  6  7  2  0  0  0  0
  6 14  1  0  0  0  0
  6 16  1  0  0  0  0
  7 11  1  0  0  0  0
  8  9  1  0  0  0  0
  8 15  1  0  0  0  0
  9 24  1  0  0  0  0
 10 23  1  0  0  0  0
 10 29  2  0  0  0  0
 11 12  2  0  0  0  0
 12 30  1  0  0  0  0
 13 15  1  0  0  0  0
 13 19  1  0  0  0  0
 14 26  1  0  0  0  0
 15 20  1  0  0  0  0
 16 21  2  0  0  0  0
 17 27  1  0  0  0  0
 18 25  1  0  0  0  0
 19 24  1  0  0  0  0
 20 24  1  0  0  0  0
 21 22  1  0  0  0  0
 22 27  1  0  0  0  0
 23 25  2  0  0  0  0
 26 30  2  0  0  0  0
 28 29  1  0  0  0  0
M  END
>  <Original_Directory>
4uye_A_rec_5g4r_lf1_lig_tt_docked_0_pocket10

>  <Original_Filename>
4uye_A_rec_5g4r_lf1_lig_tt_docked_0_pocket10_gen_sample_18.sdf

>  <Molecule_ID>
sample_18

>  <logS>
-4.8706799

$$$$