/tmp/tmpz1e_k0yz
  MOE2022           3D

 36 41  0  0  1  0  0  0  0  0999 V2000
    6.9030   44.5490   53.9210 C   0  0  0  0  0  0  0  0  0  0  0  0
    7.5670   45.2930   54.9190 O   0  0  0  0  0  0  0  0  0  0  0  0
    9.6090   45.9750   52.2810 N   0  3  3  0  0  0  0  0  0  0  0  0
    8.8960   45.4920   49.6300 C   0  0  3  0  0  0  0  0  0  0  0  0
   10.3620   47.9390   51.4700 O   0  0  0  0  0  0  0  0  0  0  0  0
   11.8250   46.1460   51.4170 N   0  0  0  0  0  0  0  0  0  0  0  0
   15.7730   49.3950   54.1940 O   0  0  0  0  0  0  0  0  0  0  0  0
    6.1450   42.4700   53.0600 C   0  0  0  0  0  0  0  0  0  0  0  0
   12.7430   46.6260   52.2970 C   0  0  0  0  0  0  0  0  0  0  0  0
    8.6990   44.9310   51.9160 C   0  0  3  0  0  0  0  0  0  0  0  0
   13.7440   47.4620   51.8480 C   0  0  0  0  0  0  0  0  0  0  0  0
   11.3110   46.3680   45.2240 C   0  0  0  0  0  0  0  0  0  0  0  0
   12.6600   46.2230   53.6350 C   0  0  3  0  0  0  0  0  0  0  0  0
    9.2110   47.5210   44.4580 C   0  0  0  0  0  0  0  0  0  0  0  0
   11.4220   47.0590   46.5660 C   0  0  0  0  0  0  0  0  0  0  0  0
    9.4250   45.7060   47.2920 C   0  0  0  0  0  0  0  0  0  0  0  0
   10.4550   47.2180   48.8440 N   0  0  0  0  0  0  0  0  0  0  0  0
   10.2180   46.1950   49.8350 C   0  0  3  0  0  0  0  0  0  0  0  0
   12.2440   44.9680   53.8420 O   0  0  0  0  0  0  0  0  0  0  0  0
    6.4050   43.1780   54.3850 C   0  0  0  0  0  0  0  0  0  0  0  0
   14.8850   48.4260   53.8350 C   0  0  0  0  0  0  0  0  0  0  0  0
   10.4550   46.6800   47.5790 C   0  0  0  0  0  0  0  0  0  0  0  0
    9.6300   46.4290   53.5500 O   0  5  0  0  0  0  0  0  0  0  0  0
    9.8260   45.3460   43.6160 O   0  0  0  0  0  0  0  0  0  0  0  0
    5.7680   45.3190   53.2170 C   0  0  0  0  0  0  0  0  0  0  0  0
   14.0480   47.9210   54.8230 C   0  0  0  0  0  0  0  0  0  0  0  0
    6.6570   43.4670   52.0160 C   0  0  0  0  0  0  0  0  0  0  0  0
   13.0580   46.9900   54.7070 C   0  0  0  0  0  0  0  0  0  0  0  0
   10.4840   46.6330   51.3020 C   0  0  1  0  0  0  0  0  0  0  0  0
    7.8160   44.1020   52.7890 C   0  0  3  0  0  0  0  0  0  0  0  0
   14.8070   48.0120   52.5180 C   0  0  0  0  0  0  0  0  0  0  0  0
    9.0640   44.2830   50.5820 C   0  0  0  0  0  0  0  0  0  0  0  0
    9.0430   45.4200   45.8620 C   0  0  0  0  0  0  0  0  0  0  0  0
    8.9700   44.9190   48.2860 N   0  0  0  0  0  0  0  0  0  0  0  0
    5.6690   44.6220   51.8540 C   0  0  0  0  0  0  0  0  0  0  0  0
    9.8550   46.1630   44.7840 C   0  0  1  0  0  0  0  0  0  0  0  0
  1  2  1  0  0  0  0
  1 20  1  0  0  0  0
  1 25  1  0  0  0  0
  1 30  1  0  0  0  0
  3 10  1  0  0  0  0
  3 23  1  0  0  0  0
  3 29  1  0  0  0  0
  4 18  1  0  0  0  0
  4 32  1  0  0  0  0
  4 34  1  0  0  0  0
  5 29  1  0  0  0  0
  6  9  1  0  0  0  0
  6 29  1  0  0  0  0
  7 21  1  0  0  0  0
  8 20  1  0  0  0  0
  8 27  1  0  0  0  0
  9 11  2  0  0  0  0
  9 13  1  0  0  0  0
 10 30  1  0  0  0  0
 10 32  1  0  0  0  0
 11 31  1  0  0  0  0
 12 15  1  0  0  0  0
 12 36  1  0  0  0  0
 13 19  1  0  0  0  0
 13 28  1  0  0  0  0
 14 36  1  0  0  0  0
 15 22  2  0  0  0  0
 16 22  1  0  0  0  0
 16 33  2  0  0  0  0
 16 34  1  0  0  0  0
 17 18  1  0  0  0  0
 17 22  1  0  0  0  0
 18 29  1  0  0  0  0
 21 26  1  0  0  0  0
 21 31  2  0  0  0  0
 24 36  1  0  0  0  0
 25 35  1  0  0  0  0
 26 28  2  0  0  0  0
 27 30  1  0  0  0  0
 27 35  1  0  0  0  0
 33 36  1  0  0  0  0
M  CHG  1   3   1
M  CHG  1  23  -1
M  END
>  <Original_Directory>
4mk9_A_rec_4mia_28l_lig_tt_docked_0_pocket10

>  <Original_Filename>
4mk9_A_rec_4mia_28l_lig_tt_docked_0_pocket10_gen_sample_10.sdf

>  <Molecule_ID>
sample_10

>  <logS>
-2.9568601

$$$$