/tmp/tmpp4fqce67
  MOE2022           3D

 27 31  0  0  1  0  0  0  0  0999 V2000
   18.3820   22.5650   44.7170 C   0  0  0  0  0  0  0  0  0  0  0  0
   18.1120   22.7170   43.3260 O   0  0  0  0  0  0  0  0  0  0  0  0
   17.0300   16.4800   47.1620 C   0  0  0  0  0  0  0  0  0  0  0  0
   18.6820   20.3020   47.6540 C   0  0  0  0  0  0  0  0  0  0  0  0
   15.0830   15.8220   45.1230 C   0  0  0  0  0  0  0  0  0  0  0  0
   16.5660   15.0390   47.0570 C   0  0  3  0  0  0  0  0  0  0  0  0
   18.1090   21.4650   46.8740 C   0  0  0  0  0  0  0  0  0  0  0  0
   15.7210   17.1330   45.2250 N   0  0  0  0  0  0  0  0  0  0  0  0
   19.4860   26.8020   42.8100 N   0  0  0  0  0  0  0  0  0  0  0  0
   20.6740   25.1390   44.0030 N   0  0  0  0  0  0  0  0  0  0  0  0
   16.9930   18.7890   46.4490 C   0  0  0  0  0  0  0  0  0  0  0  0
   17.9120   23.8530   47.3990 C   0  0  0  0  0  0  0  0  0  0  0  0
   17.8230   19.0590   47.5400 C   0  0  0  0  0  0  0  0  0  0  0  0
   18.8480   23.8450   42.8270 C   0  0  3  0  0  0  0  0  0  0  0  0
   19.6330   24.2750   44.0400 C   0  0  3  0  0  0  0  0  0  0  0  0
   18.6300   24.3970   46.3610 C   0  0  0  0  0  0  0  0  0  0  0  0
   18.3200   26.2510   42.4850 C   0  0  0  0  0  0  0  0  0  0  0  0
   17.9420   18.1790   48.5560 N   0  0  0  0  0  0  0  0  0  0  0  0
   17.9060   24.9500   42.3730 C   0  0  0  0  0  0  0  0  0  0  0  0
   18.0890   21.4470   45.4870 C   0  0  0  0  0  0  0  0  0  0  0  0
   18.9370   23.7590   45.1690 C   0  0  0  0  0  0  0  0  0  0  0  0
   16.4700   17.4910   46.3180 C   0  0  0  0  0  0  0  0  0  0  0  0
   17.6090   22.5210   47.6150 C   0  0  0  0  0  0  0  0  0  0  0  0
   15.8570   14.6960   45.7580 C   0  0  0  0  0  0  0  0  0  0  0  0
   20.5300   26.3580   43.5150 C   0  0  0  0  0  0  0  0  0  0  0  0
   17.7640   14.1140   47.2270 C   0  0  0  0  0  0  0  0  0  0  0  0
   17.4410   16.9550   48.4120 C   0  0  0  0  0  0  0  0  0  0  0  0
  1  2  1  0  0  0  0
  1 20  1  0  0  0  0
  1 21  2  0  0  0  0
  2 14  1  0  0  0  0
  3  6  1  0  0  0  0
  3 22  2  0  0  0  0
  3 27  1  0  0  0  0
  4  7  1  0  0  0  0
  4 13  1  0  0  0  0
  5  8  1  0  0  0  0
  5 24  1  0  0  0  0
  6 24  1  0  0  0  0
  6 26  1  0  0  0  0
  7 20  1  0  0  0  0
  7 23  2  0  0  0  0
  8 22  1  0  0  0  0
  9 17  1  0  0  0  0
  9 25  1  0  0  0  0
 10 15  1  0  0  0  0
 10 25  2  0  0  0  0
 11 13  2  0  0  0  0
 11 22  1  0  0  0  0
 12 16  2  0  0  0  0
 12 23  1  0  0  0  0
 13 18  1  0  0  0  0
 14 15  1  0  0  0  0
 14 19  1  0  0  0  0
 15 21  1  0  0  0  0
 16 21  1  0  0  0  0
 17 19  2  0  0  0  0
 18 27  2  0  0  0  0
M  END
>  <Original_Directory>
4k2y_A_rec_4kp0_kpk_lig_tt_docked_1_pocket10

>  <Original_Filename>
4k2y_A_rec_4kp0_kpk_lig_tt_docked_1_pocket10_gen_sample_9.sdf

>  <Molecule_ID>
sample_9

>  <logS>
-3.3996899

$$$$