/tmp/tmpp5jete0u
  MOE2022           3D

 25 28  0  0  1  0  0  0  0  0999 V2000
   -6.1190  -26.9460   10.3330 C   0  0  0  0  0  0  0  0  0  0  0  0
   -6.5210  -30.9920   10.7740 C   0  0  0  0  0  0  0  0  0  0  0  0
  -11.2360  -29.8890   10.4510 C   0  0  0  0  0  0  0  0  0  0  0  0
  -11.8140  -28.9480   12.5910 C   0  0  0  0  0  0  0  0  0  0  0  0
   -6.4330  -28.2670   10.4980 N   0  0  0  0  0  0  0  0  0  0  0  0
  -12.1720  -27.9170   13.4000 O   0  0  0  0  0  0  0  0  0  0  0  0
  -12.0080  -30.4660    9.5650 O   0  0  0  0  0  0  0  0  0  0  0  0
   -7.6890  -30.2270   10.9100 C   0  0  0  0  0  0  0  0  0  0  0  0
  -11.6110  -30.2630   13.1060 C   0  0  0  0  0  0  0  0  0  0  0  0
   -5.2070  -26.7980    9.3760 N   0  0  0  0  0  0  0  0  0  0  0  0
   -8.9280  -30.8100   10.7490 O   0  0  0  0  0  0  0  0  0  0  0  0
   -5.3710  -30.3680   10.2870 C   0  0  0  0  0  0  0  0  0  0  0  0
   -3.3060  -28.1710    9.5270 O   0  0  0  0  0  0  0  0  0  0  0  0
  -12.2040  -27.6620   10.6160 O   0  0  0  0  0  0  0  0  0  0  0  0
   -5.4700  -29.0340    9.8970 C   0  0  3  0  0  0  0  0  0  0  0  0
   -4.4700  -28.2980    7.8280 O   0  0  0  0  0  0  0  0  0  0  0  0
   -4.5680  -28.0670    9.1440 C   0  0  0  0  0  0  0  0  0  0  0  0
  -12.3730  -30.7050   14.1330 N   0  0  0  0  0  0  0  0  0  0  0  0
  -11.0130  -32.5260   12.5730 C   0  0  0  0  0  0  0  0  0  0  0  0
  -10.8390  -31.1620   12.3480 C   0  0  0  0  0  0  0  0  0  0  0  0
  -10.2320  -30.6470   11.1520 C   0  0  0  0  0  0  0  0  0  0  0  0
  -11.7330  -28.7810   11.2120 C   0  0  0  0  0  0  0  0  0  0  0  0
  -12.4890  -32.0130   14.3640 C   0  0  0  0  0  0  0  0  0  0  0  0
  -11.8270  -32.9510   13.6070 C   0  0  0  0  0  0  0  0  0  0  0  0
   -7.5520  -28.8410   11.0240 C   0  0  0  0  0  0  0  0  0  0  0  0
  1  5  1  0  0  0  0
  1 10  1  0  0  0  0
  2  8  1  0  0  0  0
  2 12  2  0  0  0  0
  3  7  1  0  0  0  0
  3 21  2  0  0  0  0
  3 22  1  0  0  0  0
  4  6  1  0  0  0  0
  4  9  1  0  0  0  0
  4 22  2  0  0  0  0
  5 15  1  0  0  0  0
  5 25  1  0  0  0  0
  8 11  1  0  0  0  0
  8 25  2  0  0  0  0
  9 18  1  0  0  0  0
  9 20  2  0  0  0  0
 10 17  1  0  0  0  0
 11 21  1  0  0  0  0
 12 15  1  0  0  0  0
 13 17  1  0  0  0  0
 14 22  1  0  0  0  0
 15 17  1  0  0  0  0
 16 17  1  0  0  0  0
 18 23  2  0  0  0  0
 19 20  1  0  0  0  0
 19 24  2  0  0  0  0
 20 21  1  0  0  0  0
 23 24  1  0  0  0  0
M  END
>  <Original_Directory>
5ok9_F_rec_3sp5_cx7_lig_tt_min_0_pocket10

>  <Original_Filename>
5ok9_F_rec_3sp5_cx7_lig_tt_min_0_pocket10_gen_sample_14.sdf

>  <Molecule_ID>
sample_14

>  <logS>
-1.06521

$$$$