/tmp/tmp2h3e5st8
  MOE2022           3D

 22 25  0  0  1  0  0  0  0  0999 V2000
  -36.1150   -0.7130   13.3980 C   0  0  0  0  0  0  0  0  0  0  0  0
  -40.9880   -0.8780   13.1280 C   0  0  0  0  0  0  0  0  0  0  0  0
  -34.3390   -0.7990   11.7990 O   0  0  0  0  0  0  0  0  0  0  0  0
  -39.2720   -1.0680    8.7860 O   0  0  0  0  0  0  0  0  0  0  0  0
  -37.3080   -2.3750   10.7730 O   0  0  0  0  0  0  0  0  0  0  0  0
  -41.0320    2.0850   13.3280 C   0  0  0  0  0  0  0  0  0  0  0  0
  -41.5620   -0.1470   14.1120 C   0  0  0  0  0  0  0  0  0  0  0  0
  -37.4410   -1.0260   10.2910 C   0  0  3  0  0  0  0  0  0  0  0  0
  -38.9110   -0.7180   10.0970 C   0  0  2  0  0  0  0  0  0  0  0  0
  -39.7590   -1.4310   11.0610 N   0  0  0  0  0  0  0  0  0  0  0  0
  -39.6650    1.5310    9.2830 O   0  0  0  0  0  0  0  0  0  0  0  0
  -36.5030   -0.1640   11.0680 C   0  0  3  0  0  0  0  0  0  0  0  0
  -40.0600    0.7510   11.5780 C   0  0  0  0  0  0  0  0  0  0  0  0
  -39.2010    0.7580   10.3690 C   0  0  3  0  0  0  0  0  0  0  0  0
  -40.2970   -0.5600   11.9810 C   0  0  0  0  0  0  0  0  0  0  0  0
  -35.7200   -1.0710   11.9920 C   0  0  2  0  0  0  0  0  0  0  0  0
  -35.4570   -3.4560   11.7430 O   0  0  0  0  0  0  0  0  0  0  0  0
  -36.8050    0.6220   13.3450 C   0  0  0  0  0  0  0  0  0  0  0  0
  -37.0630    0.9630   11.8970 C   0  0  0  0  0  0  0  0  0  0  0  0
  -41.5760    1.2150   14.2390 C   0  0  0  0  0  0  0  0  0  0  0  0
  -40.4350    1.8740   12.1710 N   0  0  0  0  0  0  0  0  0  0  0  0
  -36.1420   -2.4500   11.5670 C   0  0  0  0  0  0  0  0  0  0  0  0
  1 16  1  0  0  0  0
  1 18  1  0  0  0  0
  2  7  1  0  0  0  0
  2 15  2  0  0  0  0
  3 16  1  0  0  0  0
  4  9  1  0  0  0  0
  5  8  1  0  0  0  0
  5 22  1  0  0  0  0
  6 20  2  0  0  0  0
  6 21  1  0  0  0  0
  7 20  1  0  0  0  0
  8  9  1  0  0  0  0
  8 12  1  0  0  0  0
  9 10  1  0  0  0  0
  9 14  1  0  0  0  0
 10 15  1  0  0  0  0
 11 14  1  0  0  0  0
 12 16  1  0  0  0  0
 12 19  1  0  0  0  0
 13 14  1  0  0  0  0
 13 15  1  0  0  0  0
 13 21  2  0  0  0  0
 16 22  1  0  0  0  0
 17 22  2  0  0  0  0
 18 19  1  0  0  0  0
M  END
>  <Original_Directory>
5l4u_A_rec_4auj_hnw_lig_tt_docked_1_pocket10

>  <Original_Filename>
5l4u_A_rec_4auj_hnw_lig_tt_docked_1_pocket10_gen_sample_9.sdf

>  <Molecule_ID>
sample_9

>  <logS>
-1.64297

$$$$