/tmp/tmpa3jsxs_x
  MOE2022           3D

 24 27  0  0  1  0  0  0  0  0999 V2000
    6.6580    2.7680   17.5030 O   0  0  0  0  0  0  0  0  0  0  0  0
   11.8950    8.6550   24.8840 N   0  0  0  0  0  0  0  0  0  0  0  0
    8.8480    8.6220   23.3530 C   0  0  3  0  0  0  0  0  0  0  0  0
   10.6140    9.9690   22.5480 O   0  0  0  0  0  0  0  0  0  0  0  0
    8.3360    8.1700   22.1900 C   0  0  3  0  0  0  0  0  0  0  0  0
   12.2970    7.7380   25.8030 C   0  0  0  0  0  0  0  0  0  0  0  0
   10.5950    8.8140   24.6190 C   0  0  3  0  0  0  0  0  0  0  0  0
    9.3630    3.6520   17.3560 O   0  0  0  0  0  0  0  0  0  0  0  0
    9.6650    8.1370   25.2840 C   0  0  0  0  0  0  0  0  0  0  0  0
    7.0870    4.0490   17.7440 C   0  0  3  0  0  0  0  0  0  0  0  0
    7.5000    6.8350   19.9310 C   0  0  0  0  0  0  0  0  0  0  0  0
   10.0570    9.1720   23.4610 C   0  0  3  0  0  0  0  0  0  0  0  0
    8.5000    5.6460   18.1170 N   0  0  0  0  0  0  0  0  0  0  0  0
    6.9420    6.5920   21.1460 C   0  0  0  0  0  0  0  0  0  0  0  0
    8.5480    8.1290   24.5520 N   0  0  0  0  0  0  0  0  0  0  0  0
    8.2780    7.9880   19.8010 C   0  0  0  0  0  0  0  0  0  0  0  0
    7.3860    5.9460   18.8390 C   0  0  3  0  0  0  0  0  0  0  0  0
    8.4310    4.3630   17.7450 C   0  0  0  0  0  0  0  0  0  0  0  0
    9.9980    7.4150   26.3790 C   0  0  0  0  0  0  0  0  0  0  0  0
   13.4960    7.4070   25.9180 O   0  0  0  0  0  0  0  0  0  0  0  0
    6.4970    4.8820   18.7110 C   0  0  0  0  0  0  0  0  0  0  0  0
    7.3510    7.2290   22.2630 O   0  0  0  0  0  0  0  0  0  0  0  0
   11.3460    7.4060   26.7550 C   0  0  0  0  0  0  0  0  0  0  0  0
    8.7390    8.6060   20.9430 C   0  0  0  0  0  0  0  0  0  0  0  0
  1 10  1  0  0  0  0
  2  6  1  0  0  0  0
  2  7  1  0  0  0  0
  3  5  1  0  0  0  0
  3 12  1  0  0  0  0
  3 15  1  0  0  0  0
  4 12  1  0  0  0  0
  5 22  1  0  0  0  0
  5 24  1  0  0  0  0
  6 20  2  0  0  0  0
  6 23  1  0  0  0  0
  7  9  1  0  0  0  0
  7 12  1  0  0  0  0
  8 18  2  0  0  0  0
  9 15  1  0  0  0  0
  9 19  2  0  0  0  0
 10 18  1  0  0  0  0
 10 21  1  0  0  0  0
 11 14  2  0  0  0  0
 11 16  1  0  0  0  0
 11 17  1  0  0  0  0
 13 17  1  0  0  0  0
 13 18  1  0  0  0  0
 14 22  1  0  0  0  0
 16 24  2  0  0  0  0
 17 21  1  0  0  0  0
 19 23  1  0  0  0  0
M  END
>  <Original_Directory>
2xbx_A_rec_4a7i_a7i_lig_tt_docked_0_pocket10

>  <Original_Filename>
2xbx_A_rec_4a7i_a7i_lig_tt_docked_0_pocket10_gen_sample_11.sdf

>  <Molecule_ID>
sample_11

>  <logS>
-1.3568

$$$$