/tmp/tmp36u96i1g
  MOE2022           3D

 24 26  0  0  1  0  0  0  0  0999 V2000
   10.1170    8.8880   23.6130 C   0  0  0  0  0  0  0  0  0  0  0  0
    7.7760    3.6730   27.5940 O   0  0  0  0  0  0  0  0  0  0  0  0
    9.2470    2.6450   17.5870 C   0  0  0  0  0  0  0  0  0  0  0  0
    7.8020    4.5020   17.1230 C   0  0  0  0  0  0  0  0  0  0  0  0
    8.8110    8.4730   21.6550 C   0  0  0  0  0  0  0  0  0  0  0  0
    9.8220    3.3550   18.6340 C   0  0  0  0  0  0  0  0  0  0  0  0
    8.9300    6.7680   26.5010 C   0  0  0  0  0  0  0  0  0  0  0  0
    7.9560    7.1030   19.7480 C   0  0  0  0  0  0  0  0  0  0  0  0
    8.1140    6.7100   18.2840 C   0  0  0  0  0  0  0  0  0  0  0  0
    9.7750    4.5080   26.9430 N   0  0  0  0  0  0  0  0  0  0  0  0
    8.4370    5.2520   18.1060 C   0  0  0  0  0  0  0  0  0  0  0  0
    9.8930    9.0870   22.2620 C   0  0  0  0  0  0  0  0  0  0  0  0
    8.6640    8.4060   20.1370 C   0  0  0  0  0  0  0  0  0  0  0  0
    9.3650    4.6310   18.9190 C   0  0  0  0  0  0  0  0  0  0  0  0
    9.2680    8.0290   24.3120 C   0  0  0  0  0  0  0  0  0  0  0  0
    8.2210    3.2190   16.8510 C   0  0  0  0  0  0  0  0  0  0  0  0
    9.8900    5.9250   27.0030 C   0  0  3  0  0  0  0  0  0  0  0  0
    9.5050    2.4300   27.7280 O   0  0  0  0  0  0  0  0  0  0  0  0
    9.6100    7.6690   25.6930 C   0  0  3  0  0  0  0  0  0  0  0  0
    7.8860    7.8900   22.5140 C   0  0  0  0  0  0  0  0  0  0  0  0
    9.0370    3.5870   27.6230 C   0  0  0  0  0  0  0  0  0  0  0  0
   10.8970    7.6870   26.1300 N   0  0  0  0  0  0  0  0  0  0  0  0
   11.1500    6.4450   26.5950 C   0  0  0  0  0  0  0  0  0  0  0  0
    8.1040    7.6170   23.7970 N   0  0  0  0  0  0  0  0  0  0  0  0
  1 12  2  0  0  0  0
  1 15  1  0  0  0  0
  2 21  2  0  0  0  0
  3  6  1  0  0  0  0
  3 16  2  0  0  0  0
  4 11  2  0  0  0  0
  4 16  1  0  0  0  0
  5 12  1  0  0  0  0
  5 13  1  0  0  0  0
  5 20  2  0  0  0  0
  6 14  2  0  0  0  0
  7 17  1  0  0  0  0
  7 19  1  0  0  0  0
  8  9  1  0  0  0  0
  8 13  1  0  0  0  0
  9 11  1  0  0  0  0
 10 17  1  0  0  0  0
 10 21  1  0  0  0  0
 11 14  1  0  0  0  0
 15 19  1  0  0  0  0
 15 24  2  0  0  0  0
 17 23  1  0  0  0  0
 18 21  1  0  0  0  0
 19 22  1  0  0  0  0
 20 24  1  0  0  0  0
 22 23  1  0  0  0  0
M  END
>  <Original_Directory>
2xbx_A_rec_4a7i_a7i_lig_tt_docked_0_pocket10

>  <Original_Filename>
2xbx_A_rec_4a7i_a7i_lig_tt_docked_0_pocket10_gen_sample_10.sdf

>  <Molecule_ID>
sample_10

>  <logS>
-2.9008999

$$$$