/tmp/tmphkep4xi2
  MOE2022           3D

 18 20  0  0  1  0  0  0  0  0999 V2000
   18.6230    1.6140    9.9200 C   0  0  0  0  0  0  0  0  0  0  0  0
   17.4130    2.2420   10.5690 C   0  0  3  0  0  0  0  0  0  0  0  0
   17.6240    2.2390    7.7270 N   0  0  0  0  0  0  0  0  0  0  0  0
   15.9630    4.1320   10.5410 C   0  0  3  0  0  0  0  0  0  0  0  0
   15.8600    4.5700   12.9110 C   0  0  0  0  0  0  0  0  0  0  0  0
   17.3840    1.6530    6.4980 C   0  0  0  0  0  0  0  0  0  0  0  0
   14.4670    5.1690   12.7060 C   0  0  3  0  0  0  0  0  0  0  0  0
   13.9080    5.3510   11.2900 C   0  0  3  0  0  0  0  0  0  0  0  0
   16.5720    3.1020    9.6670 C   0  0  3  0  0  0  0  0  0  0  0  0
   16.1360    3.4630   11.9090 C   0  0  3  0  0  0  0  0  0  0  0  0
   18.7870    1.9650    8.4700 C   0  0  0  0  0  0  0  0  0  0  0  0
   14.4060    6.4160   13.3920 O   0  0  0  0  0  0  0  0  0  0  0  0
   17.5740    3.1660   11.7110 N   0  0  0  0  0  0  0  0  0  0  0  0
   16.5650    2.9730    8.3240 C   0  0  0  0  0  0  0  0  0  0  0  0
   19.8880    2.0730    7.9590 O   0  0  0  0  0  0  0  0  0  0  0  0
   14.5120    4.4300   10.2490 C   0  0  0  0  0  0  0  0  0  0  0  0
   18.0840    1.0050    5.8150 O   0  0  0  0  0  0  0  0  0  0  0  0
   12.5220    5.0780   11.3000 O   0  0  0  0  0  0  0  0  0  0  0  0
  1  2  1  0  0  0  0
  1 11  1  0  0  0  0
  2  9  1  0  0  0  0
  2 13  1  0  0  0  0
  3  6  1  0  0  0  0
  3 11  1  0  0  0  0
  3 14  1  0  0  0  0
  4  9  1  0  0  0  0
  4 10  1  0  0  0  0
  4 16  1  0  0  0  0
  5  7  1  0  0  0  0
  5 10  1  0  0  0  0
  6 17  2  0  0  0  0
  7  8  1  0  0  0  0
  7 12  1  0  0  0  0
  8 16  1  0  0  0  0
  8 18  1  0  0  0  0
  9 14  1  0  0  0  0
 10 13  1  0  0  0  0
 11 15  2  0  0  0  0
M  END
>  <Original_Directory>
3u4u_A_rec_3wik_lct_lig_tt_min_0_pocket10

>  <Original_Filename>
3u4u_A_rec_3wik_lct_lig_tt_min_0_pocket10_gen_sample_1.sdf

>  <Molecule_ID>
sample_1

>  <logS>
-0.18720999

$$$$