/tmp/tmppcft94fm
  MOE2022           3D

 23 25  0  0  1  0  0  0  0  0999 V2000
   -4.5200   24.8180   26.5450 C   0  0  3  0  0  0  0  0  0  0  0  0
   -4.1470   26.1400   25.9210 C   0  0  3  0  0  0  0  0  0  0  0  0
   -3.1310   28.0540   28.7750 F   0  0  0  0  0  0  0  0  0  0  0  0
   -4.1610   21.9650   24.4970 C   0  0  3  0  0  0  0  0  0  0  0  0
   -2.0940   26.7120   27.0800 C   0  0  0  0  0  0  0  0  0  0  0  0
   -2.2000   22.3400   23.0570 C   0  0  0  0  0  0  0  0  0  0  0  0
   -3.2790   19.7070   24.2400 N   0  0  0  0  0  0  0  0  0  0  0  0
   -2.0050   20.1730   24.3180 C   0  0  0  0  0  0  0  0  0  0  0  0
   -1.5650   21.1500   23.2740 C   0  0  0  0  0  0  0  0  0  0  0  0
   -4.5570   26.0250   29.8150 O   0  0  0  0  0  0  0  0  0  0  0  0
   -3.2890   22.7860   23.8120 C   0  0  0  0  0  0  0  0  0  0  0  0
   -4.1100   24.5220   27.9550 C   0  0  0  0  0  0  0  0  0  0  0  0
   -3.6580   25.7370   28.7580 C   0  0  3  0  0  0  0  0  0  0  0  0
   -0.3980   20.8200   22.6420 O   0  0  0  0  0  0  0  0  0  0  0  0
   -5.3180   23.8830   25.7870 C   0  0  0  0  0  0  0  0  0  0  0  0
   -6.2720   24.3140   25.1620 O   0  0  0  0  0  0  0  0  0  0  0  0
   -3.3370   26.9840   27.9330 C   0  0  1  0  0  0  0  0  0  0  0  0
   -1.2160   19.8440   25.1940 O   0  0  0  0  0  0  0  0  0  0  0  0
   -4.3500   20.5530   24.1750 C   0  0  0  0  0  0  0  0  0  0  0  0
   -4.4750   27.2330   26.9410 C   0  0  0  0  0  0  0  0  0  0  0  0
   -2.6330   26.1750   25.7660 C   0  0  0  0  0  0  0  0  0  0  0  0
   -4.9740   22.4070   25.7010 C   0  0  0  0  0  0  0  0  0  0  0  0
   -5.4690   20.1250   23.8940 O   0  0  0  0  0  0  0  0  0  0  0  0
  1  2  1  0  0  0  0
  1 12  1  0  0  0  0
  1 15  1  0  0  0  0
  2 20  1  0  0  0  0
  2 21  1  0  0  0  0
  3 17  1  0  0  0  0
  4 11  1  0  0  0  0
  4 19  1  0  0  0  0
  4 22  1  0  0  0  0
  5 17  1  0  0  0  0
  5 21  1  0  0  0  0
  6  9  2  0  0  0  0
  6 11  1  0  0  0  0
  7  8  1  0  0  0  0
  7 19  1  0  0  0  0
  8  9  1  0  0  0  0
  8 18  2  0  0  0  0
  9 14  1  0  0  0  0
 10 13  1  0  0  0  0
 12 13  1  0  0  0  0
 13 17  1  0  0  0  0
 15 16  2  0  0  0  0
 15 22  1  0  0  0  0
 17 20  1  0  0  0  0
 19 23  2  0  0  0  0
M  END
>  <Original_Directory>
1z4q_A_rec_1z4p_dgp_lig_tt_docked_2_pocket10

>  <Original_Filename>
1z4q_A_rec_1z4p_dgp_lig_tt_docked_2_pocket10_gen_sample_17.sdf

>  <Molecule_ID>
sample_17

>  <logS>
-1.38955

$$$$