/tmp/tmpzvx4_dwf
  MOE2022           3D

 10 10  0  0  0  0  0  0  0  0999 V2000
  -22.0480  -25.2740  -21.1080 C   0  0  0  0  0  0  0  0  0  0  0  0
  -22.8990  -25.4000  -25.1160 C   0  0  0  0  0  0  0  0  0  0  0  0
  -22.4810  -22.4120  -24.1710 O   0  0  0  0  0  0  0  0  0  0  0  0
  -23.8140  -25.2610  -22.7910 C   0  0  0  0  0  0  0  0  0  0  0  0
  -23.3250  -25.5610  -21.5160 C   0  0  0  0  0  0  0  0  0  0  0  0
  -25.1570  -25.3720  -23.0140 O   0  0  0  0  0  0  0  0  0  0  0  0
  -22.9950  -24.7270  -23.8160 C   0  0  0  0  0  0  0  0  0  0  0  0
  -20.9970  -24.5910  -21.6860 C   0  0  0  0  0  0  0  0  0  0  0  0
  -21.0480  -23.6850  -22.7390 C   0  0  0  0  0  0  0  0  0  0  0  0
  -22.1880  -23.5940  -23.5640 C   0  0  0  0  0  0  0  0  0  0  0  0
  1  5  1  0  0  0  0
  1  8  2  0  0  0  0
  2  7  1  0  0  0  0
  3 10  1  0  0  0  0
  4  5  1  0  0  0  0
  4  6  1  0  0  0  0
  4  7  2  0  0  0  0
  7 10  1  0  0  0  0
  8  9  1  0  0  0  0
  9 10  2  0  0  0  0
M  END
>  <Original_Directory>
4qkn_A_rec_4idz_oga_lig_tt_min_0_pocket10

>  <Original_Filename>
4qkn_A_rec_4idz_oga_lig_tt_min_0_pocket10_gen_sample_9.sdf

>  <Molecule_ID>
sample_9

>  <logS>
-0.50387001

$$$$