/tmp/tmpgg3oa4h2
  MOE2022           3D

 31 36  0  0  1  0  0  0  0  0999 V2000
   11.8570  -12.7380   -3.1110 C   0  0  0  0  0  0  0  0  0  0  0  0
    4.3050   -9.7850   -5.7170 C   0  0  0  0  0  0  0  0  0  0  0  0
    7.9670  -10.5820   -7.7040 C   0  0  0  0  0  0  0  0  0  0  0  0
   11.6240  -15.6990   -7.2070 C   0  0  0  0  0  0  0  0  0  0  0  0
    5.5210  -10.0920   -6.3270 C   0  0  0  0  0  0  0  0  0  0  0  0
   10.0210  -11.7340   -5.8020 C   0  0  3  0  0  0  0  0  0  0  0  0
   10.9280  -11.0170   -4.8200 C   0  0  0  0  0  0  0  0  0  0  0  0
   11.8760  -11.3900   -3.7490 C   0  0  0  0  0  0  0  0  0  0  0  0
   10.2920   -9.7160   -4.5480 C   0  0  0  0  0  0  0  0  0  0  0  0
    9.1590  -13.5140   -7.2920 C   0  0  3  0  0  0  0  0  0  0  0  0
    8.8980   -9.7890   -4.9390 C   0  0  0  0  0  0  0  0  0  0  0  0
    7.6350  -11.5260   -6.5240 C   0  0  2  0  0  0  0  0  0  0  0  0
   10.0710  -13.2650   -6.0110 C   0  0  3  0  0  0  0  0  0  0  0  0
    8.0880   -8.8800   -4.9800 O   0  0  0  0  0  0  0  0  0  0  0  0
    5.6380  -12.1450   -5.0620 C   0  0  0  0  0  0  0  0  0  0  0  0
    7.9960  -15.6040   -8.3940 C   0  0  0  0  0  0  0  0  0  0  0  0
   11.5470  -13.4370   -6.2910 C   0  0  0  0  0  0  0  0  0  0  0  0
    3.7350  -10.6780   -4.8060 C   0  0  0  0  0  0  0  0  0  0  0  0
    8.2140  -11.9390   -4.1830 O   0  0  0  0  0  0  0  0  0  0  0  0
   12.6960  -10.3880   -3.2320 C   0  0  0  0  0  0  0  0  0  0  0  0
    6.7160  -14.8030   -8.4700 C   0  0  0  0  0  0  0  0  0  0  0  0
    6.8550  -13.2880   -8.2600 C   0  0  0  0  0  0  0  0  0  0  0  0
    7.6840  -13.0520   -6.9500 C   0  0  3  0  0  0  0  0  0  0  0  0
   12.1790  -14.6540   -6.4280 C   0  0  0  0  0  0  0  0  0  0  0  0
    4.3880  -11.8700   -4.5010 C   0  0  0  0  0  0  0  0  0  0  0  0
    9.1850  -14.9980   -7.6900 C   0  0  0  0  0  0  0  0  0  0  0  0
    6.2240  -11.2530   -5.9720 C   0  0  0  0  0  0  0  0  0  0  0  0
   10.9680   -8.7720   -3.7720 C   0  0  0  0  0  0  0  0  0  0  0  0
   12.2270   -9.0650   -3.2360 C   0  0  0  0  0  0  0  0  0  0  0  0
    8.6320  -11.2440   -5.3580 C   0  0  1  0  0  0  0  0  0  0  0  0
   10.3180  -15.7870   -7.6070 C   0  0  0  0  0  0  0  0  0  0  0  0
  1  8  1  0  0  0  0
  2  5  1  0  0  0  0
  2 18  2  0  0  0  0
  3 12  1  0  0  0  0
  4 24  1  0  0  0  0
  4 31  2  0  0  0  0
  5 27  2  0  0  0  0
  6  7  1  0  0  0  0
  6 13  1  0  0  0  0
  6 30  1  0  0  0  0
  7  8  2  0  0  0  0
  7  9  1  0  0  0  0
  8 20  1  0  0  0  0
  9 11  1  0  0  0  0
  9 28  2  0  0  0  0
 10 13  1  0  0  0  0
 10 23  1  0  0  0  0
 10 26  1  0  0  0  0
 11 14  2  0  0  0  0
 11 30  1  0  0  0  0
 12 23  1  0  0  0  0
 12 27  1  0  0  0  0
 12 30  1  0  0  0  0
 13 17  1  0  0  0  0
 15 25  2  0  0  0  0
 15 27  1  0  0  0  0
 16 21  1  0  0  0  0
 16 26  2  0  0  0  0
 17 24  1  0  0  0  0
 18 25  1  0  0  0  0
 19 30  1  0  0  0  0
 20 29  2  0  0  0  0
 21 22  1  0  0  0  0
 22 23  1  0  0  0  0
 26 31  1  0  0  0  0
 28 29  1  0  0  0  0
M  END
>  <Original_Directory>
4rio_A_rec_3zep_1nx_lig_tt_min_0_pocket10

>  <Original_Filename>
4rio_A_rec_3zep_1nx_lig_tt_min_0_pocket10_gen_sample_7.sdf

>  <Molecule_ID>
sample_7

>  <logS>
-7.0368199

$$$$