/tmp/tmp6nnbqxel
  MOE2022           3D

 15 16  0  0  1  0  0  0  0  0999 V2000
   -1.5210   35.5650   25.4650 O   0  0  0  0  0  0  0  0  0  0  0  0
    0.0230   31.2520   25.3330 C   0  0  0  0  0  0  0  0  0  0  0  0
    0.8330   32.5120   22.7550 O   0  0  0  0  0  0  0  0  0  0  0  0
    1.4460   31.2030   24.7850 C   0  0  0  0  0  0  0  0  0  0  0  0
   -0.7020   37.8500   25.1650 O   0  0  0  0  0  0  0  0  0  0  0  0
    1.5250   30.3110   22.5590 O   0  0  0  0  0  0  0  0  0  0  0  0
   -0.5180   30.8280   23.9420 C   0  0  0  0  0  0  0  0  0  0  0  0
   -2.3620   36.8650   23.5350 O   0  0  0  0  0  0  0  0  0  0  0  0
    0.2320   33.5880   23.3660 C   0  0  3  0  0  0  0  0  0  0  0  0
   -0.0020   33.6250   24.6650 C   0  0  0  0  0  0  0  0  0  0  0  0
   -0.0150   36.0550   23.4970 O   0  0  0  0  0  0  0  0  0  0  0  0
    0.8580   31.2390   23.3720 C   0  0  0  0  0  0  0  0  0  0  0  0
   -0.3230   32.6250   25.5890 O   0  0  0  0  0  0  0  0  0  0  0  0
   -0.1120   34.9450   22.3520 S   0  0  0  0  0  0  0  0  0  0  0  0
   -1.1960   36.6240   24.4400 P   0  0  0  0  0  0  0  0  0  0  0  0
  1 15  1  0  0  0  0
  2  4  1  0  0  0  0
  2  7  1  0  0  0  0
  2 13  1  0  0  0  0
  3  9  1  0  0  0  0
  3 12  1  0  0  0  0
  4 12  1  0  0  0  0
  5 15  1  0  0  0  0
  6 12  1  0  0  0  0
  7 12  1  0  0  0  0
  8 15  2  0  0  0  0
  9 10  1  0  0  0  0
  9 14  1  0  0  0  0
 10 13  1  0  0  0  0
 11 14  1  0  0  0  0
 11 15  1  0  0  0  0
M  END
>  <Original_Directory>
1u6q_A_rec_2vio_l1o_lig_tt_docked_2_pocket10

>  <Original_Filename>
1u6q_A_rec_2vio_l1o_lig_tt_docked_2_pocket10_gen_sample_19.sdf

>  <Molecule_ID>
sample_19

>  <logS>
-1.00003

$$$$