/tmp/tmp2zlzfieu
  MOE2022           3D

 13 14  0  0  1  0  0  0  0  0999 V2000
   -9.1680   13.2320   20.7420 C   0  0  0  0  0  0  0  0  0  0  0  0
   -8.8230   10.7840   22.2420 C   0  0  2  0  0  0  0  0  0  0  0  0
  -10.8860   12.2900   19.3690 C   0  0  0  0  0  0  0  0  0  0  0  0
   -7.5860   11.6190   21.9030 C   0  0  0  0  0  0  0  0  0  0  0  0
   -9.8260   10.8270   21.0890 C   0  0  0  0  0  0  0  0  0  0  0  0
   -9.6820   14.5120   20.4870 C   0  0  0  0  0  0  0  0  0  0  0  0
   -9.4920   11.3360   23.5000 C   0  0  0  0  0  0  0  0  0  0  0  0
  -12.2480   13.7030   18.0270 O   0  0  0  0  0  0  0  0  0  0  0  0
  -10.7030   14.6840   19.5700 C   0  0  0  0  0  0  0  0  0  0  0  0
  -11.2170   13.5620   18.9120 C   0  0  0  0  0  0  0  0  0  0  0  0
   -8.4500    9.4340   22.4630 O   0  0  0  0  0  0  0  0  0  0  0  0
   -7.9240   13.0750   21.5900 C   0  0  0  0  0  0  0  0  0  0  0  0
   -9.9120   12.1360   20.3470 C   0  0  0  0  0  0  0  0  0  0  0  0
  1  6  1  0  0  0  0
  1 12  1  0  0  0  0
  1 13  2  0  0  0  0
  2  4  1  0  0  0  0
  2  5  1  0  0  0  0
  2  7  1  0  0  0  0
  2 11  1  0  0  0  0
  3 10  2  0  0  0  0
  3 13  1  0  0  0  0
  4 12  1  0  0  0  0
  5 13  1  0  0  0  0
  6  9  2  0  0  0  0
  8 10  1  0  0  0  0
  9 10  1  0  0  0  0
M  END
>  <Original_Directory>
4fgc_A_rec_4f8b_gd1_lig_tt_docked_1_pocket10

>  <Original_Filename>
4fgc_A_rec_4f8b_gd1_lig_tt_docked_1_pocket10_gen_sample_5.sdf

>  <Molecule_ID>
sample_5

>  <logS>
-1.56827

$$$$