/tmp/tmpf5mswjx2
  MOE2022           3D

 25 29  0  0  1  0  0  0  0  0999 V2000
    4.7880   -7.6230    5.0000 C   0  0  0  0  0  0  0  0  0  0  0  0
    6.2050  -10.6230    3.3040 C   0  0  0  0  0  0  0  0  0  0  0  0
   -0.4370   -4.6570    6.1810 C   0  0  0  0  0  0  0  0  0  0  0  0
    3.8730   -8.1600    8.5560 C   0  0  0  0  0  0  0  0  0  0  0  0
    6.8660  -10.5580    5.6260 C   0  0  0  0  0  0  0  0  0  0  0  0
   -0.4890   -6.6090    4.7060 C   0  0  0  0  0  0  0  0  0  0  0  0
    2.9720   -5.0810    8.8170 C   0  0  3  0  0  0  0  0  0  0  0  0
    5.3860   -8.8660    4.7500 C   0  0  3  0  0  0  0  0  0  0  0  0
    1.6920   -4.3800    9.2440 C   0  0  0  0  0  0  0  0  0  0  0  0
    5.2340   -9.4160    7.0800 C   0  0  0  0  0  0  0  0  0  0  0  0
    0.6510   -4.8820    7.0150 C   0  0  3  0  0  0  0  0  0  0  0  0
    4.5680   -8.2450    7.2800 N   0  0  0  0  0  0  0  0  0  0  0  0
    5.8470   -9.6260    5.8490 C   0  0  0  0  0  0  0  0  0  0  0  0
    1.5400   -5.9510    6.9270 C   0  0  0  0  0  0  0  0  0  0  0  0
    0.9440   -3.8090    8.0600 C   0  0  0  0  0  0  0  0  0  0  0  0
    2.8790   -5.7420    7.4690 C   0  0  3  0  0  0  0  0  0  0  0  0
    6.9720  -11.1330    4.3600 C   0  0  0  0  0  0  0  0  0  0  0  0
    5.5330   -9.4100    3.4680 C   0  0  0  0  0  0  0  0  0  0  0  0
    4.4770   -7.3020    6.3110 C   0  0  0  0  0  0  0  0  0  0  0  0
    4.4100   -7.0630    9.4530 C   0  0  0  0  0  0  0  0  0  0  0  0
    0.3930   -7.4540    5.3320 C   0  0  0  0  0  0  0  0  0  0  0  0
    1.2380   -7.1670    6.3730 C   0  0  0  0  0  0  0  0  0  0  0  0
   -0.8030   -5.3300    5.0530 C   0  0  0  0  0  0  0  0  0  0  0  0
    4.0740   -5.8780    6.5810 C   0  0  0  0  0  0  0  0  0  0  0  0
    3.2900   -6.1250    9.8760 C   0  0  0  0  0  0  0  0  0  0  0  0
  1  8  1  0  0  0  0
  1 19  2  0  0  0  0
  2 17  1  0  0  0  0
  2 18  2  0  0  0  0
  3 11  1  0  0  0  0
  3 23  2  0  0  0  0
  4 12  1  0  0  0  0
  4 20  1  0  0  0  0
  5 13  1  0  0  0  0
  5 17  2  0  0  0  0
  6 21  2  0  0  0  0
  6 23  1  0  0  0  0
  7  9  1  0  0  0  0
  7 16  1  0  0  0  0
  7 25  1  0  0  0  0
  8 13  1  0  0  0  0
  8 18  1  0  0  0  0
  9 15  1  0  0  0  0
 10 12  1  0  0  0  0
 10 13  2  0  0  0  0
 11 14  1  0  0  0  0
 11 15  1  0  0  0  0
 12 19  1  0  0  0  0
 14 16  1  0  0  0  0
 14 22  2  0  0  0  0
 16 24  1  0  0  0  0
 19 24  1  0  0  0  0
 20 25  1  0  0  0  0
 21 22  1  0  0  0  0
M  END
>  <Original_Directory>
4kba_C_rec_4kbk_1qg_lig_tt_docked_1_pocket10

>  <Original_Filename>
4kba_C_rec_4kbk_1qg_lig_tt_docked_1_pocket10_gen_sample_13.sdf

>  <Molecule_ID>
sample_13

>  <logS>
-4.9134202

$$$$