/tmp/tmp0gqyle59
  MOE2022           3D

 23 27  0  0  1  0  0  0  0  0999 V2000
   -5.0400   22.3910   13.3790 C   0  0  3  0  0  0  0  0  0  0  0  0
   -4.9840   23.2730    9.8830 O   0  0  0  0  0  0  0  0  0  0  0  0
   -6.8120   22.5550   11.3020 C   0  0  3  0  0  0  0  0  0  0  0  0
   -3.9520   18.9530   16.8100 C   0  0  0  0  0  0  0  0  0  0  0  0
   -3.3680   21.4580   14.8090 C   0  0  3  0  0  0  0  0  0  0  0  0
   -3.3690   18.9840   14.4770 C   0  0  3  0  0  0  0  0  0  0  0  0
   -7.7610   22.8600   10.2620 O   0  0  0  0  0  0  0  0  0  0  0  0
   -5.5850   23.4650   11.1310 C   0  0  0  0  0  0  0  0  0  0  0  0
   -8.6520   21.7820   10.3420 C   0  0  0  0  0  0  0  0  0  0  0  0
   -6.1210   20.5220   12.4590 O   0  0  0  0  0  0  0  0  0  0  0  0
   -7.9650   20.5700   10.8870 C   0  0  3  0  0  0  0  0  0  0  0  0
   -2.0820   19.1660   15.2800 C   0  0  0  0  0  0  0  0  0  0  0  0
   -4.3040   18.3160   15.4870 C   0  0  0  0  0  0  0  0  0  0  0  0
   -6.0370   24.8010   11.1040 O   0  0  0  0  0  0  0  0  0  0  0  0
   -4.8100   20.9380   12.8940 C   0  0  3  0  0  0  0  0  0  0  0  0
   -3.9510   20.3120   13.9930 C   0  0  3  0  0  0  0  0  0  0  0  0
   -4.5720   23.3130   12.2580 C   0  0  0  0  0  0  0  0  0  0  0  0
   -2.6670   19.7490   16.5780 C   0  0  3  0  0  0  0  0  0  0  0  0
   -9.7660   21.8440    9.8750 O   0  0  0  0  0  0  0  0  0  0  0  0
   -3.0770   21.1970   16.2750 C   0  0  0  0  0  0  0  0  0  0  0  0
   -4.2700   22.5640   14.5890 N   0  0  0  0  0  0  0  0  0  0  0  0
   -7.9670   19.5040    9.8840 N   0  0  0  0  0  0  0  0  0  0  0  0
   -6.5310   21.0590   11.1840 C   0  0  3  0  0  0  0  0  0  0  0  0
  1 15  1  0  0  0  0
  1 17  1  0  0  0  0
  1 21  1  0  0  0  0
  2  8  1  0  0  0  0
  3  7  1  0  0  0  0
  3  8  1  0  0  0  0
  3 23  1  0  0  0  0
  4 13  1  0  0  0  0
  4 18  1  0  0  0  0
  5 16  1  0  0  0  0
  5 20  1  0  0  0  0
  5 21  1  0  0  0  0
  6 12  1  0  0  0  0
  6 13  1  0  0  0  0
  6 16  1  0  0  0  0
  7  9  1  0  0  0  0
  8 14  1  0  0  0  0
  8 17  1  0  0  0  0
  9 11  1  0  0  0  0
  9 19  2  0  0  0  0
 10 15  1  0  0  0  0
 10 23  1  0  0  0  0
 11 22  1  0  0  0  0
 11 23  1  0  0  0  0
 12 18  1  0  0  0  0
 15 16  1  0  0  0  0
 18 20  1  0  0  0  0
M  END
>  <Original_Directory>
5k0g_A_rec_5k0n_6p0_lig_tt_min_0_pocket10

>  <Original_Filename>
5k0g_A_rec_5k0n_6p0_lig_tt_min_0_pocket10_gen_sample_11.sdf

>  <Molecule_ID>
sample_11

>  <logS>
-2.17292

$$$$