/tmp/tmp5j6pgmcm
  MOE2022           3D

 17 19  0  0  1  0  0  0  0  0999 V2000
  -34.2060    9.0980    0.5570 C   0  0  0  0  0  0  0  0  0  0  0  0
  -32.6340    9.6350   -5.7940 C   0  0  3  0  0  0  0  0  0  0  0  0
  -33.9750   10.3330   -3.8200 N   0  0  0  0  0  0  0  0  0  0  0  0
  -34.9690    9.7020   -7.1520 C   0  0  0  0  0  0  0  0  0  0  0  0
  -35.0940    9.0900   -1.6040 C   0  0  0  0  0  0  0  0  0  0  0  0
  -33.1080    9.9710   -2.8350 C   0  0  0  0  0  0  0  0  0  0  0  0
  -32.0020   10.4820   -2.7760 O   0  0  0  0  0  0  0  0  0  0  0  0
  -33.2910    7.5580   -1.8130 C   0  0  0  0  0  0  0  0  0  0  0  0
  -33.5830    9.0470   -1.7520 C   0  0  0  0  0  0  0  0  0  0  0  0
  -31.6760    9.0030   -5.0920 O   0  0  0  0  0  0  0  0  0  0  0  0
  -33.0660    9.5010   -0.3820 C   0  0  0  0  0  0  0  0  0  0  0  0
  -34.9030   10.3890   -5.9450 O   0  0  0  0  0  0  0  0  0  0  0  0
  -35.0960    8.2260   -0.3440 C   0  0  0  0  0  0  0  0  0  0  0  0
  -32.5570    9.7210   -7.1940 C   0  0  0  0  0  0  0  0  0  0  0  0
  -34.2800    7.0080   -0.7760 C   0  0  0  0  0  0  0  0  0  0  0  0
  -33.8310   10.0580   -5.1620 C   0  0  3  0  0  0  0  0  0  0  0  0
  -33.7720    9.5850   -7.8760 C   0  0  0  0  0  0  0  0  0  0  0  0
  1 11  1  0  0  0  0
  1 13  1  0  0  0  0
  2 10  1  0  0  0  0
  2 14  1  0  0  0  0
  2 16  1  0  0  0  0
  3  6  1  0  0  0  0
  3 16  1  0  0  0  0
  4 12  1  0  0  0  0
  4 17  1  0  0  0  0
  5  9  1  0  0  0  0
  5 13  1  0  0  0  0
  6  7  2  0  0  0  0
  6  9  1  0  0  0  0
  8  9  1  0  0  0  0
  8 15  1  0  0  0  0
  9 11  1  0  0  0  0
 12 16  1  0  0  0  0
 13 15  1  0  0  0  0
 14 17  1  0  0  0  0
M  END
>  <Original_Directory>
4yqi_A_rec_4yq0_4fm_lig_tt_min_0_pocket10

>  <Original_Filename>
4yqi_A_rec_4yq0_4fm_lig_tt_min_0_pocket10_gen_sample_2.sdf

>  <Molecule_ID>
sample_2

>  <logS>
-2.09057

$$$$