/tmp/tmp_60tr95g
  MOE2022           3D

 29 31  0  0  1  0  0  0  0  0999 V2000
    5.7500   19.4380   28.0070 N   0  0  0  0  0  0  0  0  0  0  0  0
    1.5980   18.2930   26.4960 O   0  0  0  0  0  0  0  0  0  0  0  0
    5.8260   20.7770   27.5850 C   0  0  0  0  0  0  0  0  0  0  0  0
    1.2450   21.6780   26.9360 N   0  0  0  0  0  0  0  0  0  0  0  0
    5.2170   23.1000   27.9310 C   0  0  0  0  0  0  0  0  0  0  0  0
    2.1320   21.2860   25.8350 C   0  0  3  0  0  0  0  0  0  0  0  0
    5.1460   21.7690   28.3100 C   0  0  0  0  0  0  0  0  0  0  0  0
    6.5920   22.4590   26.0410 C   0  0  0  0  0  0  0  0  0  0  0  0
    3.2810   17.3740   28.4740 O   0  0  0  0  0  0  0  0  0  0  0  0
    6.1310   24.8160   26.2160 C   0  0  0  0  0  0  0  0  0  0  0  0
    5.0600   24.4130   22.2490 C   0  0  3  0  0  0  0  0  0  0  0  0
    3.6700   18.1460   27.6180 C   0  0  0  0  0  0  0  0  0  0  0  0
    3.8760   24.8500   22.8620 C   0  0  0  0  0  0  0  0  0  0  0  0
    5.0760   23.1950   21.3640 C   0  0  0  0  0  0  0  0  0  0  0  0
    7.0660   25.4230   21.4880 O   0  0  0  0  0  0  0  0  0  0  0  0
    6.5620   21.1370   26.4490 C   0  0  0  0  0  0  0  0  0  0  0  0
    5.8250   17.5410   26.7850 O   0  0  0  0  0  0  0  0  0  0  0  0
    7.1800   23.0560   24.7790 C   0  0  0  0  0  0  0  0  0  0  0  0
    2.9830   22.5060   25.4560 C   0  0  0  0  0  0  0  0  0  0  0  0
    2.9780   20.1520   26.2780 C   0  0  0  0  0  0  0  0  0  0  0  0
    6.8010   25.4690   23.8500 C   0  0  3  0  0  0  0  0  0  0  0  0
    6.7330   24.4970   24.8870 C   0  0  3  0  0  0  0  0  0  0  0  0
    6.3560   25.1250   22.4470 C   0  0  0  0  0  0  0  0  0  0  0  0
    3.2990   22.6870   23.9760 C   0  0  0  0  0  0  0  0  0  0  0  0
    5.1770   18.3530   27.4210 C   0  0  0  0  0  0  0  0  0  0  0  0
    2.9280   24.0810   23.5020 C   0  0  0  0  0  0  0  0  0  0  0  0
    6.9360   26.7210   24.1440 O   0  0  0  0  0  0  0  0  0  0  0  0
    2.7090   18.8690   26.6690 C   0  0  0  0  0  0  0  0  0  0  0  0
    5.9480   23.4420   26.8020 C   0  0  0  0  0  0  0  0  0  0  0  0
  1  3  1  0  0  0  0
  1 25  1  0  0  0  0
  2 28  2  0  0  0  0
  3  7  2  0  0  0  0
  3 16  1  0  0  0  0
  4  6  1  0  0  0  0
  5  7  1  0  0  0  0
  5 29  2  0  0  0  0
  6 19  1  0  0  0  0
  6 20  1  0  0  0  0
  8 16  2  0  0  0  0
  8 18  1  0  0  0  0
  8 29  1  0  0  0  0
  9 12  2  0  0  0  0
 10 22  1  0  0  0  0
 10 29  1  0  0  0  0
 11 13  1  0  0  0  0
 11 14  1  0  0  0  0
 11 23  1  0  0  0  0
 12 25  1  0  0  0  0
 12 28  1  0  0  0  0
 13 26  1  0  0  0  0
 15 23  2  0  0  0  0
 17 25  2  0  0  0  0
 18 22  1  0  0  0  0
 19 24  1  0  0  0  0
 20 28  1  0  0  0  0
 21 22  1  0  0  0  0
 21 23  1  0  0  0  0
 21 27  1  0  0  0  0
 24 26  1  0  0  0  0
M  END
>  <Original_Directory>
2q1l_B_rec_1hw8_114_lig_tt_min_0_pocket10

>  <Original_Filename>
2q1l_B_rec_1hw8_114_lig_tt_min_0_pocket10_gen_sample_5.sdf

>  <Molecule_ID>
sample_5

>  <logS>
-3.60005

$$$$