/tmp/tmpxygaemtr
  MOE2022           3D

 12 13  0  0  1  0  0  0  0  0999 V2000
   83.8280  -46.0850   22.5080 O   0  0  0  0  0  0  0  0  0  0  0  0
   83.1220  -44.8240   24.4170 C   0  0  2  0  0  0  0  0  0  0  0  0
   82.1860  -43.6150   24.4760 C   0  0  0  0  0  0  0  0  0  0  0  0
   82.5410  -44.1260   22.1710 C   0  0  0  0  0  0  0  0  0  0  0  0
   84.4010  -44.5600   25.1750 C   0  0  0  0  0  0  0  0  0  0  0  0
   81.2900  -43.3280   20.3130 C   0  0  0  0  0  0  0  0  0  0  0  0
   80.3470  -42.8190   21.2110 C   0  0  0  0  0  0  0  0  0  0  0  0
   81.7900  -43.3560   23.0510 C   0  0  0  0  0  0  0  0  0  0  0  0
   83.4130  -45.0260   22.9390 C   0  0  0  0  0  0  0  0  0  0  0  0
   82.4460  -43.9440   20.7970 C   0  0  0  0  0  0  0  0  0  0  0  0
   80.6620  -42.7090   22.5690 C   0  0  0  0  0  0  0  0  0  0  0  0
   82.4610  -45.9110   24.9310 F   0  0  0  0  0  0  0  0  0  0  0  0
  1  9  2  0  0  0  0
  2  3  1  0  0  0  0
  2  5  1  0  0  0  0
  2  9  1  0  0  0  0
  2 12  1  0  0  0  0
  3  8  1  0  0  0  0
  4  8  1  0  0  0  0
  4  9  1  0  0  0  0
  4 10  2  0  0  0  0
  6  7  2  0  0  0  0
  6 10  1  0  0  0  0
  7 11  1  0  0  0  0
  8 11  2  0  0  0  0
M  END
>  <Original_Directory>
2ycs_A_rec_4bde_cws_lig_tt_min_0_pocket10

>  <Original_Filename>
2ycs_A_rec_4bde_cws_lig_tt_min_0_pocket10_gen_sample_19.sdf

>  <Molecule_ID>
sample_19

>  <logS>
-2.52456

$$$$