/tmp/tmpk8dt8lgs
  MOE2022           3D

 40 45  0  0  1  0  0  0  0  0999 V2000
 -151.5540  -70.3020   61.0500 C   0  0  3  0  0  0  0  0  0  0  0  0
 -151.1280  -72.6170   58.8050 O   0  0  0  0  0  0  0  0  0  0  0  0
 -151.7760  -72.7260   61.1440 C   0  0  3  0  0  0  0  0  0  0  0  0
 -147.5500  -74.1490   58.6410 S   0  0  0  0  0  0  0  0  0  0  0  0
 -151.2180  -67.0880   54.8950 C   0  0  3  0  0  0  0  0  0  0  0  0
 -150.0310  -73.4440   56.7300 C   0  0  3  0  0  0  0  0  0  0  0  0
 -152.6460  -68.6710   52.5780 O   0  0  0  0  0  0  0  0  0  0  0  0
 -149.7680  -69.7620   57.0210 C   0  0  0  0  0  0  0  0  0  0  0  0
 -147.2720  -73.4510   57.3980 O   0  0  0  0  0  0  0  0  0  0  0  0
 -154.5570  -68.0960   57.6070 C   0  0  0  0  0  0  0  0  0  0  0  0
 -153.8750  -66.9140   57.2780 C   0  0  0  0  0  0  0  0  0  0  0  0
 -152.9590  -68.5290   59.3830 C   0  0  0  0  0  0  0  0  0  0  0  0
 -154.2580  -66.1560   56.1000 C   0  0  0  0  0  0  0  0  0  0  0  0
 -152.4640  -67.3000   52.8350 C   0  0  1  0  0  0  0  0  0  0  0  0
 -150.3800  -73.6650   58.1890 C   0  0  3  0  0  0  0  0  0  0  0  0
 -151.1550  -68.3660   55.6760 C   0  0  0  0  0  0  0  0  0  0  0  0
 -150.3090  -67.1590   53.7490 N   0  0  0  0  0  0  0  0  0  0  0  0
 -152.7040  -71.4480   56.5250 O   0  0  0  0  0  0  0  0  0  0  0  0
 -149.4680  -73.2550   60.3830 C   0  0  0  0  0  0  0  0  0  0  0  0
 -151.0330  -66.8970   52.5120 C   0  0  0  0  0  0  0  0  0  0  0  0
 -153.3320  -66.6050   52.0450 F   0  0  0  0  0  0  0  0  0  0  0  0
 -149.2460  -74.0360   59.1080 C   0  0  3  0  0  0  0  0  0  0  0  0
 -152.3720  -67.2890   59.1270 C   0  0  0  0  0  0  0  0  0  0  0  0
 -150.3670  -70.8750   60.2950 C   0  0  0  0  0  0  0  0  0  0  0  0
 -153.6860  -66.4460   54.8570 C   0  0  0  0  0  0  0  0  0  0  0  0
 -154.1010  -68.8910   58.6470 C   0  0  0  0  0  0  0  0  0  0  0  0
 -152.2630  -71.4280   61.7760 C   0  0  0  0  0  0  0  0  0  0  0  0
 -152.1340  -69.3270   55.6430 C   0  0  0  0  0  0  0  0  0  0  0  0
 -151.8210  -70.6080   56.2240 C   0  0  0  0  0  0  0  0  0  0  0  0
 -150.0570  -68.5170   56.4710 O   0  0  0  0  0  0  0  0  0  0  0  0
 -152.5860  -66.9280   54.2810 C   0  0  3  0  0  0  0  0  0  0  0  0
 -151.1260  -73.9560   55.9840 O   0  0  0  0  0  0  0  0  0  0  0  0
 -150.4590  -70.8500   56.4960 C   0  0  3  0  0  0  0  0  0  0  0  0
 -146.8290  -73.5560   59.7530 O   0  0  0  0  0  0  0  0  0  0  0  0
 -149.6720  -72.0830   56.2040 C   0  0  0  0  0  0  0  0  0  0  0  0
 -152.3960  -69.3660   60.3390 C   0  0  0  0  0  0  0  0  0  0  0  0
 -150.6740  -72.3600   60.1460 C   0  0  1  0  0  0  0  0  0  0  0  0
 -152.8160  -66.4890   58.0850 C   0  0  0  0  0  0  0  0  0  0  0  0
 -151.2690  -73.5410   62.1910 O   0  0  0  0  0  0  0  0  0  0  0  0
 -147.3530  -75.6010   58.5180 O   0  0  0  0  0  0  0  0  0  0  0  0
  1 24  1  0  0  0  0
  1 27  1  0  0  0  0
  1 36  1  0  0  0  0
  2 15  1  0  0  0  0
  2 37  1  0  0  0  0
  3 27  1  0  0  0  0
  3 37  1  0  0  0  0
  3 39  1  0  0  0  0
  4  9  1  0  0  0  0
  4 22  1  0  0  0  0
  4 34  1  0  0  0  0
  4 40  1  0  0  0  0
  5 16  1  0  0  0  0
  5 17  1  0  0  0  0
  5 31  1  0  0  0  0
  6 15  1  0  0  0  0
  6 32  1  0  0  0  0
  6 35  1  0  0  0  0
  7 14  1  0  0  0  0
  8 30  1  0  0  0  0
  8 33  1  0  0  0  0
 10 11  1  0  0  0  0
 10 26  2  0  0  0  0
 11 13  1  0  0  0  0
 11 38  2  0  0  0  0
 12 23  2  0  0  0  0
 12 26  1  0  0  0  0
 12 36  1  0  0  0  0
 13 25  1  0  0  0  0
 14 20  1  0  0  0  0
 14 21  1  0  0  0  0
 14 31  1  0  0  0  0
 15 22  1  0  0  0  0
 16 28  2  0  0  0  0
 16 30  1  0  0  0  0
 17 20  1  0  0  0  0
 18 29  2  0  0  0  0
 19 22  1  0  0  0  0
 19 37  1  0  0  0  0
 23 38  1  0  0  0  0
 24 37  1  0  0  0  0
 25 31  1  0  0  0  0
 28 29  1  0  0  0  0
 29 33  1  0  0  0  0
 33 35  1  0  0  0  0
M  END
>  <Original_Directory>
4asa_A_rec_2yge_gdm_lig_tt_docked_0_pocket10

>  <Original_Filename>
4asa_A_rec_2yge_gdm_lig_tt_docked_0_pocket10_gen_sample_5.sdf

>  <Molecule_ID>
sample_5

>  <logS>
-4.3697701

$$$$