
  MOE2022           3D

 39 45  0  0  1  0  0  0  0  0999 V2000
 -153.8220  -66.5560   56.5330 C   0  0  0  0  0  0  0  0  0  0  0  0
 -150.5710  -71.9250   56.3390 C   0  0  0  0  0  0  0  0  0  0  0  0
 -150.5390  -68.0070   54.3590 N   0  0  0  0  0  0  0  0  0  0  0  0
 -150.6330  -70.5750   60.0520 C   0  0  0  0  0  0  0  0  0  0  0  0
 -148.2660  -74.0510   60.1010 N   0  0  0  0  0  0  0  0  0  0  0  0
 -152.1560  -69.6990   57.1240 C   0  0  0  0  0  0  0  0  0  0  0  0
 -153.4340  -68.7320   61.6240 C   0  0  0  0  0  0  0  0  0  0  0  0
 -153.5950  -68.1930   53.8180 C   0  0  0  0  0  0  0  0  0  0  0  0
 -153.1720  -67.2800   52.7190 C   0  0  0  0  0  0  0  0  0  0  0  0
 -155.9240  -69.1970   61.0490 C   0  0  0  0  0  0  0  0  0  0  0  0
 -151.6300  -74.0240   56.7240 C   0  0  0  0  0  0  0  0  0  0  0  0
 -150.0130  -73.0560   58.2560 C   0  0  3  0  0  0  0  0  0  0  0  0
 -152.4940  -69.8490   61.2550 C   0  0  0  0  0  0  0  0  0  0  0  0
 -151.3320  -69.5630   60.6180 N   0  0  0  0  0  0  0  0  0  0  0  0
 -154.2690  -66.1200   57.7470 C   0  0  0  0  0  0  0  0  0  0  0  0
 -147.9930  -74.0730   58.8010 C   0  0  3  0  0  0  0  0  0  0  0  0
 -151.2880  -69.6460   56.0430 C   0  0  0  0  0  0  0  0  0  0  0  0
 -153.3340  -67.8450   56.2640 C   0  0  0  0  0  0  0  0  0  0  0  0
 -151.5080  -68.5950   55.1160 C   0  0  0  0  0  0  0  0  0  0  0  0
 -148.1590  -73.4300   56.5210 C   0  0  0  0  0  0  0  0  0  0  0  0
 -150.9950  -71.9160   60.2080 C   0  0  0  0  0  0  0  0  0  0  0  0
 -146.6840  -74.4070   58.1660 C   0  0  0  0  0  0  0  0  0  0  0  0
 -148.7700  -73.4640   57.8620 N   0  0  0  0  0  0  0  0  0  0  0  0
 -151.0150  -72.8290   57.2900 N   0  0  0  0  0  0  0  0  0  0  0  0
 -154.5170  -66.7230   58.9560 C   0  0  0  0  0  0  0  0  0  0  0  0
 -153.2550  -68.8610   57.2420 C   0  0  0  0  0  0  0  0  0  0  0  0
 -146.8140  -74.1300   56.6870 C   0  0  0  0  0  0  0  0  0  0  0  0
 -149.5430  -73.7850   60.4040 C   0  0  0  0  0  0  0  0  0  0  0  0
 -154.1540  -69.0140   58.3200 C   0  0  0  0  0  0  0  0  0  0  0  0
 -154.4370  -68.0750   59.2860 C   0  0  0  0  0  0  0  0  0  0  0  0
 -151.8620  -66.9730   52.5170 C   0  0  0  0  0  0  0  0  0  0  0  0
 -150.3310  -70.7020   55.9030 C   0  0  0  0  0  0  0  0  0  0  0  0
 -150.7850  -67.1990   53.3110 C   0  0  0  0  0  0  0  0  0  0  0  0
 -152.0710  -72.1990   61.0360 C   0  0  0  0  0  0  0  0  0  0  0  0
 -152.8170  -71.1680   61.5810 C   0  0  0  0  0  0  0  0  0  0  0  0
 -145.9830  -75.3430   58.5880 O   0  0  0  0  0  0  0  0  0  0  0  0
 -150.2430  -72.9370   59.6050 N   0  0  0  0  0  0  0  0  0  0  0  0
 -154.6420  -68.4460   60.7510 C   0  0  3  0  0  0  0  0  0  0  0  0
 -152.7900  -68.1530   55.0410 N   0  0  0  0  0  0  0  0  0  0  0  0
  1 15  1  0  0  0  0
  1 18  2  0  0  0  0
  2 24  1  0  0  0  0
  2 32  1  0  0  0  0
  3 19  2  0  0  0  0
  3 33  1  0  0  0  0
  4 14  2  0  0  0  0
  4 21  1  0  0  0  0
  5 16  1  0  0  0  0
  5 28  1  0  0  0  0
  6 17  2  0  0  0  0
  6 26  1  0  0  0  0
  7 13  1  0  0  0  0
  7 38  1  0  0  0  0
  8  9  2  0  0  0  0
  8 39  1  0  0  0  0
  9 31  1  0  0  0  0
 10 38  1  0  0  0  0
 11 24  1  0  0  0  0
 12 23  1  0  0  0  0
 12 24  1  0  0  0  0
 12 37  1  0  0  0  0
 13 14  1  0  0  0  0
 13 35  2  0  0  0  0
 15 25  1  0  0  0  0
 16 22  1  0  0  0  0
 16 23  1  0  0  0  0
 17 19  1  0  0  0  0
 17 32  1  0  0  0  0
 18 26  1  0  0  0  0
 18 39  1  0  0  0  0
 19 39  1  0  0  0  0
 20 23  1  0  0  0  0
 20 27  2  0  0  0  0
 21 34  2  0  0  0  0
 21 37  1  0  0  0  0
 22 27  1  0  0  0  0
 22 36  2  0  0  0  0
 25 30  2  0  0  0  0
 26 29  2  0  0  0  0
 28 37  1  0  0  0  0
 29 30  1  0  0  0  0
 30 38  1  0  0  0  0
 31 33  2  0  0  0  0
 34 35  1  0  0  0  0
M  END
>  <Original_Directory>
4asa_A_rec_2yge_gdm_lig_tt_docked_0_pocket10

>  <Original_Filename>
4asa_A_rec_2yge_gdm_lig_tt_docked_0_pocket10_gen_sample_10.sdf

>  <Molecule_ID>
sample_10

>  <logS>
-3.3095701

$$$$