/tmp/tmpjz1r2x4c
  MOE2022           3D

  6  6  0  0  1  0  0  0  0  0999 V2000
  -19.3610  -14.0380   10.1030 O   0  0  0  0  0  0  0  0  0  0  0  0
  -18.3590  -13.1680    9.8660 C   0  0  3  0  0  0  0  0  0  0  0  0
  -16.8340  -12.3930    8.4210 C   0  0  0  0  0  0  0  0  0  0  0  0
  -18.6510  -11.8570    9.5060 C   0  0  0  0  0  0  0  0  0  0  0  0
  -17.6230  -11.3700    8.7920 N   0  0  0  0  0  0  0  0  0  0  0  0
  -17.2550  -13.5580    9.0690 C   0  0  0  0  0  0  0  0  0  0  0  0
  1  2  1  0  0  0  0
  2  4  1  0  0  0  0
  2  6  1  0  0  0  0
  3  5  1  0  0  0  0
  3  6  1  0  0  0  0
  4  5  1  0  0  0  0
M  END
>  <Original_Directory>
3kl1_A_rec_3kaz_bu2_lig_tt_min_0_pocket10

>  <Original_Filename>
3kl1_A_rec_3kaz_bu2_lig_tt_min_0_pocket10_gen_sample_17.sdf

>  <Molecule_ID>
sample_17

>  <logS>
0.49445

$$$$