
  MOE2022           3D

 15 16  0  0  0  0  0  0  0  0999 V2000
  -10.2890  -24.0940   41.2040 N   0  0  0  0  0  0  0  0  0  0  0  0
  -13.8770  -24.1320   46.6210 C   0  0  0  0  0  0  0  0  0  0  0  0
  -12.2920  -24.6220   44.0730 C   0  0  0  0  0  0  0  0  0  0  0  0
  -11.1090  -24.0800   42.2260 C   0  0  0  0  0  0  0  0  0  0  0  0
   -8.9540  -26.0300   41.5900 C   0  0  0  0  0  0  0  0  0  0  0  0
  -11.8100  -26.4450   45.3360 C   0  0  0  0  0  0  0  0  0  0  0  0
  -11.1840  -24.7630   43.3710 N   0  0  0  0  0  0  0  0  0  0  0  0
   -8.8310  -24.7230   39.6340 O   0  0  0  0  0  0  0  0  0  0  0  0
   -9.3860  -24.9890   40.7030 C   0  0  0  0  0  0  0  0  0  0  0  0
  -13.9660  -25.3170   45.6740 C   0  0  0  0  0  0  0  0  0  0  0  0
   -9.3850  -26.3310   42.8020 C   0  0  0  0  0  0  0  0  0  0  0  0
  -10.3760  -25.8220   43.6960 C   0  0  0  0  0  0  0  0  0  0  0  0
  -12.6570  -25.4750   45.0130 N   0  0  0  0  0  0  0  0  0  0  0  0
  -15.1540  -23.3290   46.7160 C   0  0  0  0  0  0  0  0  0  0  0  0
  -10.5980  -26.4800   44.8350 N   0  0  0  0  0  0  0  0  0  0  0  0
  1  4  1  0  0  0  0
  1  9  1  0  0  0  0
  2 10  1  0  0  0  0
  2 14  1  0  0  0  0
  3  7  1  0  0  0  0
  3 13  1  0  0  0  0
  4  7  1  0  0  0  0
  5  9  1  0  0  0  0
  5 11  2  0  0  0  0
  6 13  1  0  0  0  0
  6 15  1  0  0  0  0
  7 12  1  0  0  0  0
  8  9  2  0  0  0  0
 10 13  1  0  0  0  0
 11 12  1  0  0  0  0
 12 15  2  0  0  0  0
M  END
>  <Original_Directory>
1i10_C_rec_4ajl_88w_lig_tt_docked_0_pocket10

>  <Original_Filename>
1i10_C_rec_4ajl_88w_lig_tt_docked_0_pocket10_gen_sample_5.sdf

>  <Molecule_ID>
sample_5

>  <logS>
-0.27133

$$$$