
  MOE2022           3D

 16 17  0  0  1  0  0  0  0  0999 V2000
  -12.5850  -26.0370   44.0460 C   0  0  3  0  0  0  0  0  0  0  0  0
  -13.0210  -24.3880   46.3090 O   0  0  0  0  0  0  0  0  0  0  0  0
  -13.5520  -26.1820   45.0060 N   0  0  0  0  0  0  0  0  0  0  0  0
  -14.3950  -27.2550   44.9320 C   0  0  0  0  0  0  0  0  0  0  0  0
  -16.1350  -25.9510   45.8310 C   0  0  0  0  0  0  0  0  0  0  0  0
  -10.8990  -25.6010   41.9470 C   0  0  0  0  0  0  0  0  0  0  0  0
  -15.4840  -24.4310   47.5390 O   0  0  0  0  0  0  0  0  0  0  0  0
  -15.1960  -25.1500   46.4030 C   0  0  3  0  0  0  0  0  0  0  0  0
  -11.0280  -24.7180   43.0760 C   0  0  3  0  0  0  0  0  0  0  0  0
  -11.4990  -26.8400   42.0820 C   0  0  0  0  0  0  0  0  0  0  0  0
  -13.8160  -25.2300   45.9410 C   0  0  0  0  0  0  0  0  0  0  0  0
  -15.7150  -27.0920   45.1750 O   0  0  0  0  0  0  0  0  0  0  0  0
   -9.9510  -24.2640   43.7160 N   0  0  0  0  0  0  0  0  0  0  0  0
  -12.2270  -24.7610   43.7130 N   0  0  0  0  0  0  0  0  0  0  0  0
  -10.3880  -25.1360   40.7900 O   0  0  0  0  0  0  0  0  0  0  0  0
  -12.1050  -27.1270   43.3120 C   0  0  0  0  0  0  0  0  0  0  0  0
  1  3  1  0  0  0  0
  1 14  1  0  0  0  0
  1 16  1  0  0  0  0
  2 11  2  0  0  0  0
  3  4  1  0  0  0  0
  3 11  1  0  0  0  0
  4 12  1  0  0  0  0
  5  8  1  0  0  0  0
  5 12  1  0  0  0  0
  6  9  1  0  0  0  0
  6 10  2  0  0  0  0
  6 15  1  0  0  0  0
  7  8  1  0  0  0  0
  8 11  1  0  0  0  0
  9 13  1  0  0  0  0
  9 14  1  0  0  0  0
 10 16  1  0  0  0  0
M  END
>  <Original_Directory>
1i10_C_rec_4ajl_88w_lig_tt_docked_0_pocket10

>  <Original_Filename>
1i10_C_rec_4ajl_88w_lig_tt_docked_0_pocket10_gen_sample_13.sdf

>  <Molecule_ID>
sample_13

>  <logS>
1.1180201

$$$$