/tmp/tmp0nrecsjm
  MOE2022           3D

 20 21  0  0  1  0  0  0  0  0999 V2000
  -41.7180  -10.5930  -38.6150 C   0  0  0  0  0  0  0  0  0  0  0  0
  -38.7100  -12.9080  -36.0020 C   0  0  0  0  0  0  0  0  0  0  0  0
  -40.2280  -12.5500  -38.0970 C   0  0  3  0  0  0  0  0  0  0  0  0
  -38.7570  -11.6950  -35.1630 C   0  0  0  0  0  0  0  0  0  0  0  0
  -37.1290  -14.6360  -44.0090 O   0  0  0  0  0  0  0  0  0  0  0  0
  -35.7710  -14.5320  -41.9880 O   0  0  0  0  0  0  0  0  0  0  0  0
  -38.3100  -14.6670  -41.8380 O   0  0  0  0  0  0  0  0  0  0  0  0
  -39.6130  -14.1010  -39.9470 O   0  0  0  0  0  0  0  0  0  0  0  0
  -41.2180  -12.3110  -40.3970 C   0  0  3  0  0  0  0  0  0  0  0  0
  -38.3930  -14.5950  -40.4370 C   0  0  0  0  0  0  0  0  0  0  0  0
  -41.5140  -10.8220  -40.1170 C   0  0  0  0  0  0  0  0  0  0  0  0
  -40.4380  -11.0200  -37.8570 C   0  0  3  0  0  0  0  0  0  0  0  0
  -36.9080  -16.6660  -42.5440 O   0  0  0  0  0  0  0  0  0  0  0  0
  -41.0440  -12.5080  -41.9160 C   0  0  0  0  0  0  0  0  0  0  0  0
  -39.4990  -10.4540  -35.5790 C   0  0  0  0  0  0  0  0  0  0  0  0
  -36.9850  -15.1830  -42.6100 P   0  0  0  0  0  0  0  0  0  0  0  0
  -39.2070  -13.2160  -37.2230 C   0  0  0  0  0  0  0  0  0  0  0  0
  -40.6650  -10.7270  -36.4210 N   0  0  0  0  0  0  0  0  0  0  0  0
  -37.5980  -15.1380  -39.6850 O   0  0  0  0  0  0  0  0  0  0  0  0
  -39.9280  -12.7260  -39.6230 C   0  0  3  0  0  0  0  0  0  0  0  0
  1 11  1  0  0  0  0
  1 12  1  0  0  0  0
  2  4  1  0  0  0  0
  2 17  2  0  0  0  0
  3 12  1  0  0  0  0
  3 17  1  0  0  0  0
  3 20  1  0  0  0  0
  4 15  1  0  0  0  0
  5 16  2  0  0  0  0
  6 16  1  0  0  0  0
  7 10  1  0  0  0  0
  7 16  1  0  0  0  0
  8 10  1  0  0  0  0
  8 20  1  0  0  0  0
  9 11  1  0  0  0  0
  9 14  1  0  0  0  0
  9 20  1  0  0  0  0
 10 19  2  0  0  0  0
 12 18  1  0  0  0  0
 13 16  1  0  0  0  0
 15 18  1  0  0  0  0
M  END
>  <Original_Directory>
3b7j_D_rec_3ed0_emo_lig_tt_docked_9_pocket10

>  <Original_Filename>
3b7j_D_rec_3ed0_emo_lig_tt_docked_9_pocket10_gen_sample_5.sdf

>  <Molecule_ID>
sample_5

>  <logS>
-0.53385001

$$$$