
  MOE2022           3D

 40 45  0  0  1  0  0  0  0  0999 V2000
   44.1140  -20.8790   30.4320 C   0  0  0  0  0  0  0  0  0  0  0  0
   39.3800  -21.0030   30.9470 C   0  0  0  0  0  0  0  0  0  0  0  0
   41.4840  -20.6450   29.7940 C   0  0  0  0  0  0  0  0  0  0  0  0
   42.4720  -20.4550   28.8340 C   0  0  0  0  0  0  0  0  0  0  0  0
   40.0210  -20.3200   29.7410 C   0  0  3  0  0  0  0  0  0  0  0  0
   39.1300  -19.2490   27.7150 C   0  0  0  0  0  0  0  0  0  0  0  0
   43.5880  -21.4400   32.6890 O   0  0  0  0  0  0  0  0  0  0  0  0
   35.7700  -16.3160   29.2540 C   0  0  0  0  0  0  0  0  0  0  0  0
   34.4680  -14.2340   29.2120 C   0  0  0  0  0  0  0  0  0  0  0  0
   34.6400  -15.5770   29.5480 C   0  0  0  0  0  0  0  0  0  0  0  0
   38.4980  -21.6830   26.4930 C   0  0  0  0  0  0  0  0  0  0  0  0
   38.3840  -19.2570   26.5430 C   0  0  0  0  0  0  0  0  0  0  0  0
   38.9430  -17.0900   25.2570 C   0  0  0  0  0  0  0  0  0  0  0  0
   36.9500  -20.1820   24.9010 C   0  0  0  0  0  0  0  0  0  0  0  0
   40.8270  -23.6880   27.4320 C   0  0  0  0  0  0  0  0  0  0  0  0
   36.7340  -16.1870   28.2950 C   0  0  0  0  0  0  0  0  0  0  0  0
   40.5590  -21.3440   31.8710 C   0  0  0  0  0  0  0  0  0  0  0  0
   38.2700  -22.8520   25.8280 O   0  0  0  0  0  0  0  0  0  0  0  0
   37.1100  -18.7100   24.5400 C   0  0  0  0  0  0  0  0  0  0  0  0
   39.1460  -14.7050   25.1940 O   0  0  0  0  0  0  0  0  0  0  0  0
   39.8390  -22.9780   28.1440 C   0  0  0  0  0  0  0  0  0  0  0  0
   41.3030  -24.9060   27.9360 C   0  0  0  0  0  0  0  0  0  0  0  0
   36.0470  -14.0060   27.3960 C   0  0  0  0  0  0  0  0  0  0  0  0
   39.3730  -23.4730   29.3440 N   0  0  0  0  0  0  0  0  0  0  0  0
   39.8280  -24.6680   29.8020 C   0  0  0  0  0  0  0  0  0  0  0  0
   36.7090  -15.2300   27.2600 C   0  0  0  0  0  0  0  0  0  0  0  0
   39.2760  -21.6940   27.6780 C   0  0  0  0  0  0  0  0  0  0  0  0
   32.7340  -14.1850   30.5470 O   0  5  0  0  0  0  0  0  0  0  0  0
   37.8660  -18.0870   25.7230 C   0  0  3  0  0  0  0  0  0  0  0  0
   37.9410  -20.4760   26.0240 C   0  0  0  0  0  0  0  0  0  0  0  0
   40.7760  -25.4130   29.1160 C   0  0  0  0  0  0  0  0  0  0  0  0
   41.8200  -21.1340   31.0520 C   0  0  0  0  0  0  0  0  0  0  0  0
   33.6820  -13.5030   30.0560 N   0  3  0  0  0  0  0  0  0  0  0  0
   33.8600  -12.3150   30.2210 O   0  0  0  0  0  0  0  0  0  0  0  0
   43.1770  -21.1870   31.4080 C   0  0  0  0  0  0  0  0  0  0  0  0
   39.4330  -20.4570   28.3600 C   0  0  0  0  0  0  0  0  0  0  0  0
   38.4600  -15.6720   25.5030 C   0  0  0  0  0  0  0  0  0  0  0  0
   35.2820  -13.5490   28.3910 N   0  0  0  0  0  0  0  0  0  0  0  0
   43.7760  -20.5210   29.1710 N   0  0  0  0  0  0  0  0  0  0  0  0
   37.2140  -15.5550   26.0080 N   0  0  0  0  0  0  0  0  0  0  0  0
  1 35  2  0  0  0  0
  1 39  1  0  0  0  0
  2  5  1  0  0  0  0
  2 17  1  0  0  0  0
  3  4  1  0  0  0  0
  3  5  1  0  0  0  0
  3 32  2  0  0  0  0
  4 39  2  0  0  0  0
  5 36  1  0  0  0  0
  6 12  1  0  0  0  0
  6 36  2  0  0  0  0
  7 35  1  0  0  0  0
  8 10  1  0  0  0  0
  8 16  2  0  0  0  0
  9 10  1  0  0  0  0
  9 33  1  0  0  0  0
  9 38  2  0  0  0  0
 11 18  1  0  0  0  0
 11 27  2  0  0  0  0
 11 30  1  0  0  0  0
 12 29  1  0  0  0  0
 12 30  2  0  0  0  0
 13 29  1  0  0  0  0
 13 37  1  0  0  0  0
 14 19  1  0  0  0  0
 14 30  1  0  0  0  0
 15 21  2  0  0  0  0
 15 22  1  0  0  0  0
 16 26  1  0  0  0  0
 17 32  1  0  0  0  0
 19 29  1  0  0  0  0
 20 37  2  0  0  0  0
 21 24  1  0  0  0  0
 21 27  1  0  0  0  0
 22 31  2  0  0  0  0
 23 26  2  0  0  0  0
 23 38  1  0  0  0  0
 24 25  2  0  0  0  0
 25 31  1  0  0  0  0
 26 40  1  0  0  0  0
 27 36  1  0  0  0  0
 28 33  1  0  0  0  0
 32 35  1  0  0  0  0
 33 34  2  0  0  0  0
 37 40  1  0  0  0  0
M  CHG  1  28  -1
M  CHG  1  33   1
M  END
>  <Original_Directory>
5tks_A_rec_5qcm_bvj_lig_tt_docked_0_pocket10

>  <Original_Filename>
5tks_A_rec_5qcm_bvj_lig_tt_docked_0_pocket10_gen_sample_4.sdf

>  <Molecule_ID>
sample_4

>  <logS>
-5.6971202

$$$$