
  MOE2022           3D

 13 15  0  0  1  0  0  0  0  0999 V2000
   47.0570   17.4350    0.2770 C   0  0  0  0  0  0  0  0  0  0  0  0
   47.9010   15.1420    0.9610 C   0  0  1  0  0  0  0  0  0  0  0  0
   47.8450   15.9460   -1.4280 N   0  0  0  0  0  0  0  0  0  0  0  0
   45.9700   13.7000    1.4470 O   0  0  0  0  0  0  0  0  0  0  0  0
   48.7070   14.3910    2.0130 C   0  0  0  0  0  0  0  0  0  0  0  0
   49.6650   14.5790   -0.6770 O   0  0  0  0  0  0  0  0  0  0  0  0
   45.6590   15.5390   -0.1930 C   0  0  0  0  0  0  0  0  0  0  0  0
   46.5690   16.5690   -0.9120 C   0  0  3  0  0  0  0  0  0  0  0  0
   47.7850   12.4310   -0.2690 O   0  0  0  0  0  0  0  0  0  0  0  0
   47.7790   16.6330    1.3190 C   0  0  0  0  0  0  0  0  0  0  0  0
   47.3210   13.7140   -0.6770 C   0  0  3  0  0  0  0  0  0  0  0  0
   48.3160   14.8960   -0.5150 C   0  0  1  0  0  0  0  0  0  0  0  0
   46.5970   14.4830    0.4450 C   0  0  1  0  0  0  0  0  0  0  0  0
  1  8  1  0  0  0  0
  1 10  1  0  0  0  0
  2  5  1  0  0  0  0
  2 10  1  0  0  0  0
  2 12  1  0  0  0  0
  2 13  1  0  0  0  0
  3  8  1  0  0  0  0
  3 12  1  0  0  0  0
  4 13  1  0  0  0  0
  6 12  1  0  0  0  0
  7  8  1  0  0  0  0
  7 13  1  0  0  0  0
  9 11  1  0  0  0  0
 11 12  1  0  0  0  0
 11 13  1  0  0  0  0
M  END
>  <Original_Directory>
3gan_A_rec_2q3t_cps_lig_tt_docked_90_pocket10

>  <Original_Filename>
3gan_A_rec_2q3t_cps_lig_tt_docked_90_pocket10_gen_sample_9.sdf

>  <Molecule_ID>
sample_9

>  <logS>
-0.13575

$$$$