/tmp/tmp307cy65y
  MOE2022           3D

 31 34  0  0  1  0  0  0  0  0999 V2000
  -17.7730    8.8270    1.0540 C   0  0  0  0  0  0  0  0  0  0  0  0
  -14.3130    4.2730   -6.0050 C   0  0  0  0  0  0  0  0  0  0  0  0
  -16.0410    7.1580    2.3760 C   0  0  0  0  0  0  0  0  0  0  0  0
  -16.6420    8.2050    0.2860 C   0  0  0  0  0  0  0  0  0  0  0  0
  -16.5180    6.7590   -3.1800 C   0  0  0  0  0  0  0  0  0  0  0  0
  -16.5760    6.9790   -4.6660 C   0  0  1  0  0  0  0  0  0  0  0  0
  -10.9660    1.6020   -7.6230 C   0  0  0  0  0  0  0  0  0  0  0  0
  -15.4750    4.9470   -5.6290 N   0  0  0  0  0  0  0  0  0  0  0  0
  -16.6480    8.4740   -1.1080 C   0  0  0  0  0  0  0  0  0  0  0  0
  -17.8860    6.4080   -5.2620 C   0  0  3  0  0  0  0  0  0  0  0  0
  -17.4740    9.7820    2.0550 C   0  0  0  0  0  0  0  0  0  0  0  0
  -16.7960    3.0980   -6.4210 C   0  0  0  0  0  0  0  0  0  0  0  0
  -16.5600    7.6530   -2.2010 C   0  0  0  0  0  0  0  0  0  0  0  0
  -14.3340    6.8970   -5.4950 O   0  0  0  0  0  0  0  0  0  0  0  0
  -15.8100    7.3100    0.9770 C   0  0  0  0  0  0  0  0  0  0  0  0
  -16.7130    4.2760   -5.7030 C   0  0  0  0  0  0  0  0  0  0  0  0
  -11.5910    0.4390   -6.8600 C   0  0  0  0  0  0  0  0  0  0  0  0
  -14.3970    3.0690   -6.6980 C   0  0  0  0  0  0  0  0  0  0  0  0
  -17.9060    4.8730   -5.0130 C   0  0  0  0  0  0  0  0  0  0  0  0
  -13.2050    2.2290   -7.0200 C   0  0  0  0  0  0  0  0  0  0  0  0
  -11.8970    2.7820   -7.4700 C   0  0  0  0  0  0  0  0  0  0  0  0
  -15.3840    8.0940    4.4840 O   0  0  0  0  0  0  0  0  0  0  0  0
  -16.4430    9.5620    2.9680 C   0  0  0  0  0  0  0  0  0  0  0  0
  -15.9850    8.2830    3.2640 C   0  0  3  0  0  0  0  0  0  0  0  0
  -16.4800    6.0070    2.8450 N   0  0  0  0  0  0  0  0  0  0  0  0
  -16.5420    8.4890   -4.9300 C   0  0  0  0  0  0  0  0  0  0  0  0
  -12.9300    0.9240   -6.3290 C   0  0  0  0  0  0  0  0  0  0  0  0
  -18.9070    8.2620    1.0300 O   0  0  0  0  0  0  0  0  0  0  0  0
  -17.8950    6.6110   -6.6750 O   0  0  0  0  0  0  0  0  0  0  0  0
  -15.6650    2.6050   -7.0930 C   0  0  0  0  0  0  0  0  0  0  0  0
  -15.3860    6.3020   -5.3300 C   0  0  0  0  0  0  0  0  0  0  0  0
  1  4  1  0  0  0  0
  1 11  1  0  0  0  0
  1 28  2  0  0  0  0
  2  8  1  0  0  0  0
  2 18  1  0  0  0  0
  3 15  1  0  0  0  0
  3 24  1  0  0  0  0
  3 25  2  0  0  0  0
  4  9  1  0  0  0  0
  4 15  2  0  0  0  0
  5  6  1  0  0  0  0
  5 13  2  0  0  0  0
  6 10  1  0  0  0  0
  6 26  1  0  0  0  0
  6 31  1  0  0  0  0
  7 17  1  0  0  0  0
  7 21  1  0  0  0  0
  8 16  1  0  0  0  0
  8 31  1  0  0  0  0
  9 13  2  0  0  0  0
 10 19  1  0  0  0  0
 10 29  1  0  0  0  0
 11 23  1  0  0  0  0
 12 16  2  0  0  0  0
 12 30  1  0  0  0  0
 14 31  2  0  0  0  0
 16 19  1  0  0  0  0
 17 27  1  0  0  0  0
 18 20  1  0  0  0  0
 18 30  2  0  0  0  0
 20 21  1  0  0  0  0
 20 27  1  0  0  0  0
 22 24  1  0  0  0  0
 23 24  1  0  0  0  0
M  END
>  <Original_Directory>
2zfx_A_rec_2hb8_mvd_lig_tt_min_0_pocket10

>  <Original_Filename>
2zfx_A_rec_2hb8_mvd_lig_tt_min_0_pocket10_gen_sample_15.sdf

>  <Molecule_ID>
sample_15

>  <logS>
-4.4470401

$$$$