/tmp/tmpu2l6p5ep
  MOE2022           3D

  7  7  0  0  0  0  0  0  0  0999 V2000
   25.3370   -5.8840   14.7900 C   0  0  0  0  0  0  0  0  0  0  0  0
   21.7600   -5.0410   16.4660 C   0  0  0  0  0  0  0  0  0  0  0  0
   22.8500   -6.4110   14.8400 C   0  0  0  0  0  0  0  0  0  0  0  0
   21.8930   -6.2550   15.8310 C   0  0  0  0  0  0  0  0  0  0  0  0
   22.5540   -3.9670   16.0640 C   0  0  0  0  0  0  0  0  0  0  0  0
   23.5410   -4.1640   15.1150 C   0  0  0  0  0  0  0  0  0  0  0  0
   23.8800   -5.4750   14.7820 C   0  0  0  0  0  0  0  0  0  0  0  0
  1  7  1  0  0  0  0
  2  4  2  0  0  0  0
  2  5  1  0  0  0  0
  3  4  1  0  0  0  0
  3  7  2  0  0  0  0
  5  6  2  0  0  0  0
  6  7  1  0  0  0  0
M  END
>  <Original_Directory>
2c3d_A_rec_2c3c_com_lig_it1_it2_tt_docked_14_pocket10

>  <Original_Filename>
2c3d_A_rec_2c3c_com_lig_it1_it2_tt_docked_14_pocket10_gen_sample_9.sdf

>  <Molecule_ID>
sample_9

>  <logS>
-1.8588001

$$$$