/tmp/tmpu0mzk8x9
  MOE2022           3D

  7  6  0  0  0  0  0  0  0  0999 V2000
   24.7470   -4.7550   15.4930 O   0  0  0  0  0  0  0  0  0  0  0  0
   23.7430   -5.4440   15.2170 C   0  0  0  0  0  0  0  0  0  0  0  0
   23.7900   -6.4610   14.4790 O   0  0  0  0  0  0  0  0  0  0  0  0
   20.3120   -6.0920   15.5090 O   0  0  0  0  0  0  0  0  0  0  0  0
   21.8350   -7.2470   16.6040 N   0  0  0  0  0  0  0  0  0  0  0  0
   22.4010   -5.0360   15.8050 C   0  0  0  0  0  0  0  0  0  0  0  0
   21.4320   -6.1870   15.9510 C   0  0  0  0  0  0  0  0  0  0  0  0
  1  2  1  0  0  0  0
  2  3  2  0  0  0  0
  2  6  1  0  0  0  0
  4  7  2  0  0  0  0
  5  7  1  0  0  0  0
  6  7  1  0  0  0  0
M  END
>  <Original_Directory>
2c3d_A_rec_2c3c_com_lig_it1_it2_tt_docked_14_pocket10

>  <Original_Filename>
2c3d_A_rec_2c3c_com_lig_it1_it2_tt_docked_14_pocket10_gen_sample_5.sdf

>  <Molecule_ID>
sample_5

>  <logS>
0.25314

$$$$