/tmp/tmpnglm_4o0
  MOE2022           3D

 32 37  0  0  1  0  0  0  0  0999 V2000
    8.2660    2.4730   17.1040 C   0  0  0  0  0  0  0  0  0  0  0  0
    7.9980    2.3930   18.4340 C   0  0  0  0  0  0  0  0  0  0  0  0
    7.6920    3.6360   18.9100 N   0  0  0  0  0  0  0  0  0  0  0  0
    8.4730    6.9840   18.9180 C   0  0  3  0  0  0  0  0  0  0  0  0
    8.1280    8.6570   23.4810 C   0  0  0  0  0  0  0  0  0  0  0  0
   10.1110    3.3140   26.2750 N   0  0  0  0  0  0  0  0  0  0  0  0
    8.5640    5.8530   18.2190 C   0  0  0  0  0  0  0  0  0  0  0  0
    7.1140    9.3100   19.1730 C   0  0  0  0  0  0  0  0  0  0  0  0
    8.2370    3.8330   16.7590 C   0  0  0  0  0  0  0  0  0  0  0  0
    9.9640    2.0100   26.9180 C   0  0  3  0  0  0  0  0  0  0  0  0
    9.8300   -0.9440   26.3680 C   0  0  0  0  0  0  0  0  0  0  0  0
   10.4450    8.4940   23.9760 C   0  0  0  0  0  0  0  0  0  0  0  0
    7.9740    4.5400   17.9140 C   0  0  0  0  0  0  0  0  0  0  0  0
    8.4780    9.2920   21.0690 N   0  0  0  0  0  0  0  0  0  0  0  0
   11.1710    1.1200   26.6600 C   0  0  0  0  0  0  0  0  0  0  0  0
    7.7390    7.1230   20.2600 C   0  0  0  0  0  0  0  0  0  0  0  0
    8.5590    9.5370   18.7470 C   0  0  3  0  0  0  0  0  0  0  0  0
    8.9440    9.1480   22.3140 C   0  0  3  0  0  0  0  0  0  0  0  0
   11.4530    7.1740   25.7080 C   0  0  0  0  0  0  0  0  0  0  0  0
    9.1760    8.0740   24.3770 C   0  0  0  0  0  0  0  0  0  0  0  0
   11.5810    8.0950   24.6670 C   0  0  0  0  0  0  0  0  0  0  0  0
    9.4570    4.4090   26.9220 C   0  0  0  0  0  0  0  0  0  0  0  0
    9.2160   10.0270   20.0420 C   0  0  0  0  0  0  0  0  0  0  0  0
    9.0300    7.1420   25.4080 C   0  0  0  0  0  0  0  0  0  0  0  0
    7.3090    8.5870   20.5110 C   0  0  3  0  0  0  0  0  0  0  0  0
    8.6570    1.3840   26.4470 C   0  0  0  0  0  0  0  0  0  0  0  0
   10.1880    6.6460   26.0310 C   0  0  0  0  0  0  0  0  0  0  0  0
   10.4110    9.2450   22.6780 C   0  0  0  0  0  0  0  0  0  0  0  0
   10.1430    5.6520   26.9790 O   0  0  0  0  0  0  0  0  0  0  0  0
   10.8860   -0.2800   27.2080 C   0  0  0  0  0  0  0  0  0  0  0  0
    9.2170    8.2040   18.3690 C   0  0  0  0  0  0  0  0  0  0  0  0
    8.6630   -0.0750   25.9960 C   0  0  0  0  0  0  0  0  0  0  0  0
  1  2  1  0  0  0  0
  1  9  2  0  0  0  0
  2  3  1  0  0  0  0
  3 13  2  0  0  0  0
  4  7  1  0  0  0  0
  4 16  1  0  0  0  0
  4 31  1  0  0  0  0
  5 18  1  0  0  0  0
  5 20  1  0  0  0  0
  6 10  1  0  0  0  0
  6 22  1  0  0  0  0
  7 13  1  0  0  0  0
  8 17  1  0  0  0  0
  8 25  1  0  0  0  0
  9 13  1  0  0  0  0
 10 15  1  0  0  0  0
 10 26  1  0  0  0  0
 11 30  1  0  0  0  0
 11 32  2  0  0  0  0
 12 20  1  0  0  0  0
 12 21  2  0  0  0  0
 12 28  1  0  0  0  0
 14 18  1  0  0  0  0
 14 23  1  0  0  0  0
 14 25  1  0  0  0  0
 15 30  1  0  0  0  0
 16 25  1  0  0  0  0
 17 23  1  0  0  0  0
 17 31  1  0  0  0  0
 18 28  1  0  0  0  0
 19 21  1  0  0  0  0
 19 27  2  0  0  0  0
 20 24  2  0  0  0  0
 22 29  1  0  0  0  0
 24 27  1  0  0  0  0
 26 32  1  0  0  0  0
 27 29  1  0  0  0  0
M  END
>  <Original_Directory>
2vwl_A_rec_3kl6_443_lig_tt_min_0_pocket10

>  <Original_Filename>
2vwl_A_rec_3kl6_443_lig_tt_min_0_pocket10_gen_sample_1.sdf

>  <Molecule_ID>
sample_1

>  <logS>
-3.66311

$$$$