/tmp/tmpxyjzeb46
  MOE2022           3D

 22 25  0  0  1  0  0  0  0  0999 V2000
  -10.9950  -28.4150    4.5140 C   0  0  0  0  0  0  0  0  0  0  0  0
   -5.1070  -28.0150    3.1210 O   0  0  0  0  0  0  0  0  0  0  0  0
   -8.9580  -27.1510    5.2080 C   0  0  0  0  0  0  0  0  0  0  0  0
   -5.4540  -25.9990    4.3970 C   0  0  0  0  0  0  0  0  0  0  0  0
  -14.9570  -28.8180    2.7910 C   0  0  3  0  0  0  0  0  0  0  0  0
  -17.1570  -28.3550    1.5580 C   0  0  0  0  0  0  0  0  0  0  0  0
   -5.8980  -26.8300    3.1950 C   0  0  3  0  0  0  0  0  0  0  0  0
   -9.6300  -27.3330    2.8730 C   0  0  0  0  0  0  0  0  0  0  0  0
  -14.8930  -30.3500    2.8350 C   0  0  0  0  0  0  0  0  0  0  0  0
   -6.6420  -25.9270    5.3490 C   0  0  0  0  0  0  0  0  0  0  0  0
  -10.7370  -27.1510    2.0480 C   0  0  0  0  0  0  0  0  0  0  0  0
   -7.7680  -26.6320    4.6780 C   0  0  0  0  0  0  0  0  0  0  0  0
  -11.9390  -28.6370    3.4950 C   0  0  0  0  0  0  0  0  0  0  0  0
  -14.9960  -28.3230    0.2430 C   0  0  0  0  0  0  0  0  0  0  0  0
   -8.2940  -27.3180    2.4320 C   0  0  0  0  0  0  0  0  0  0  0  0
   -9.8800  -27.6150    4.2310 C   0  0  0  0  0  0  0  0  0  0  0  0
  -16.4100  -28.8930    0.3410 C   0  0  0  0  0  0  0  0  0  0  0  0
  -13.2140  -27.2620    1.7670 C   0  0  0  0  0  0  0  0  0  0  0  0
  -16.4130  -28.3820    2.8690 C   0  0  0  0  0  0  0  0  0  0  0  0
  -14.2240  -28.3600    1.5420 C   0  0  3  0  0  0  0  0  0  0  0  0
  -11.9300  -27.7720    2.3960 C   0  0  0  0  0  0  0  0  0  0  0  0
   -7.3350  -27.1470    3.4320 C   0  0  3  0  0  0  0  0  0  0  0  0
  1 13  2  0  0  0  0
  1 16  1  0  0  0  0
  2  7  1  0  0  0  0
  3 12  1  0  0  0  0
  3 16  1  0  0  0  0
  4  7  1  0  0  0  0
  4 10  1  0  0  0  0
  5  9  1  0  0  0  0
  5 19  1  0  0  0  0
  5 20  1  0  0  0  0
  6 17  1  0  0  0  0
  6 19  2  0  0  0  0
  7 22  1  0  0  0  0
  8 11  1  0  0  0  0
  8 15  1  0  0  0  0
  8 16  2  0  0  0  0
 10 12  2  0  0  0  0
 11 21  2  0  0  0  0
 12 22  1  0  0  0  0
 13 21  1  0  0  0  0
 14 17  1  0  0  0  0
 14 20  1  0  0  0  0
 15 22  1  0  0  0  0
 18 20  1  0  0  0  0
 18 21  1  0  0  0  0
M  END
>  <Original_Directory>
5ezg_A_rec_4m3g_2g1_lig_tt_min_0_pocket10

>  <Original_Filename>
5ezg_A_rec_4m3g_2g1_lig_tt_min_0_pocket10_gen_sample_8.sdf

>  <Molecule_ID>
sample_8

>  <logS>
-4.83144

$$$$