/tmp/tmpu0l1olpu
  MOE2022           3D

 26 29  0  0  1  0  0  0  0  0999 V2000
   40.8350   36.9520   13.3640 C   0  0  0  0  0  0  0  0  0  0  0  0
   46.3460   37.4930   17.6730 C   0  0  0  0  0  0  0  0  0  0  0  0
   47.6330   35.4910   17.3470 C   0  0  0  0  0  0  0  0  0  0  0  0
   46.5580   33.4710   17.9580 O   0  0  0  0  0  0  0  0  0  0  0  0
   42.0400   34.2090   15.8370 C   0  0  0  0  0  0  0  0  0  0  0  0
   41.5660   37.1310   15.6700 C   0  0  0  0  0  0  0  0  0  0  0  0
   41.9920   36.8790   17.9620 O   0  0  0  0  0  0  0  0  0  0  0  0
   40.8120   36.4850   14.6730 C   0  0  0  0  0  0  0  0  0  0  0  0
   46.4560   34.7490   17.5430 C   0  0  0  0  0  0  0  0  0  0  0  0
   45.1980   35.3790   17.4030 C   0  0  0  0  0  0  0  0  0  0  0  0
   38.5250   37.0050   12.9470 C   0  0  0  0  0  0  0  0  0  0  0  0
   39.7640   37.3780   12.6890 N   0  0  0  0  0  0  0  0  0  0  0  0
   38.0900   36.2420   14.0150 C   0  0  0  0  0  0  0  0  0  0  0  0
   43.9360   34.5520   17.2190 C   0  0  2  0  0  0  0  0  0  0  0  0
   36.9710   36.6600   14.6060 N   0  0  0  0  0  0  0  0  0  0  0  0
   42.8610   32.9780   15.6490 C   0  0  0  0  0  0  0  0  0  0  0  0
   43.5270   34.1200   18.5280 O   0  0  0  0  0  0  0  0  0  0  0  0
   40.0620   35.3480   14.9860 C   0  0  0  0  0  0  0  0  0  0  0  0
   44.1610   33.2690   16.3880 C   0  0  3  0  0  0  0  0  0  0  0  0
   42.7190   35.1780   16.5580 C   0  0  0  0  0  0  0  0  0  0  0  0
   42.1390   36.4330   16.7270 C   0  0  0  0  0  0  0  0  0  0  0  0
   47.5740   36.8690   17.4720 C   0  0  0  0  0  0  0  0  0  0  0  0
   45.1670   36.7460   17.6560 C   0  0  0  0  0  0  0  0  0  0  0  0
   40.6650   34.2790   15.6520 C   0  0  0  0  0  0  0  0  0  0  0  0
   44.4620   32.1300   17.1840 O   0  0  0  0  0  0  0  0  0  0  0  0
   38.7770   35.2050   14.5460 N   0  0  0  0  0  0  0  0  0  0  0  0
  1  8  1  0  0  0  0
  1 12  2  0  0  0  0
  2 22  2  0  0  0  0
  2 23  1  0  0  0  0
  3  9  2  0  0  0  0
  3 22  1  0  0  0  0
  4  9  1  0  0  0  0
  5 16  1  0  0  0  0
  5 20  1  0  0  0  0
  5 24  2  0  0  0  0
  6  8  2  0  0  0  0
  6 21  1  0  0  0  0
  7 21  1  0  0  0  0
  8 18  1  0  0  0  0
  9 10  1  0  0  0  0
 10 14  1  0  0  0  0
 10 23  2  0  0  0  0
 11 12  1  0  0  0  0
 11 13  2  0  0  0  0
 13 15  1  0  0  0  0
 13 26  1  0  0  0  0
 14 17  1  0  0  0  0
 14 19  1  0  0  0  0
 14 20  1  0  0  0  0
 16 19  1  0  0  0  0
 18 24  1  0  0  0  0
 18 26  2  0  0  0  0
 19 25  1  0  0  0  0
 20 21  2  0  0  0  0
M  END
>  <Original_Directory>
3hac_A_rec_3o95_01t_lig_tt_docked_0_pocket10

>  <Original_Filename>
3hac_A_rec_3o95_01t_lig_tt_docked_0_pocket10_gen_sample_12.sdf

>  <Molecule_ID>
sample_12

>  <logS>
-2.7790401

$$$$