/tmp/tmpzg9gsq14
  MOE2022           3D

 35 38  0  0  1  0  0  0  0  0999 V2000
    9.9230    3.7940   27.2960 C   0  0  0  0  0  0  0  0  0  0  0  0
    8.7700    4.4020   18.8720 C   0  0  0  0  0  0  0  0  0  0  0  0
   12.0520    7.2290   27.7160 O   0  0  0  0  0  0  0  0  0  0  0  0
    8.8990    7.0140   26.0070 C   0  0  0  0  0  0  0  0  0  0  0  0
    6.9430    6.1980   20.1960 C   0  0  0  0  0  0  0  0  0  0  0  0
    9.2230    0.0400   18.3230 N   0  0  0  0  0  0  0  0  0  0  0  0
    8.4110    8.9520   22.8810 C   0  0  0  0  0  0  0  0  0  0  0  0
    8.2450    8.3090   20.4690 C   0  0  0  0  0  0  0  0  0  0  0  0
    9.9040    4.0470   18.1550 C   0  0  0  0  0  0  0  0  0  0  0  0
    9.9710    3.0840   17.1480 C   0  0  0  0  0  0  0  0  0  0  0  0
    9.8740    0.9940   27.2730 C   0  0  0  0  0  0  0  0  0  0  0  0
   10.6440    9.2280   23.5500 C   0  0  0  0  0  0  0  0  0  0  0  0
    9.1250    7.8970   24.9310 C   0  0  0  0  0  0  0  0  0  0  0  0
   10.4450    8.3600   24.6480 C   0  0  0  0  0  0  0  0  0  0  0  0
    7.4790    4.4890   18.3900 C   0  0  3  0  0  0  0  0  0  0  0  0
    8.8570    9.0360   19.6720 O   0  0  0  0  0  0  0  0  0  0  0  0
    9.4950    0.7050   17.1900 C   0  0  0  0  0  0  0  0  0  0  0  0
    7.6000    2.3840   17.0330 C   0  0  0  0  0  0  0  0  0  0  0  0
    9.4420    1.6850   28.4010 C   0  0  0  0  0  0  0  0  0  0  0  0
   11.2350    7.1790   26.6190 C   0  0  0  0  0  0  0  0  0  0  0  0
    7.5150    8.9240   21.6570 C   0  0  0  0  0  0  0  0  0  0  0  0
   10.2610    1.6980   26.1350 C   0  0  0  0  0  0  0  0  0  0  0  0
   10.1550    0.2250   16.2670 O   0  0  0  0  0  0  0  0  0  0  0  0
    6.9470    3.4540   17.6230 C   0  0  0  0  0  0  0  0  0  0  0  0
    8.1830    6.9700   20.3510 N   0  0  0  0  0  0  0  0  0  0  0  0
    9.6080    9.6070   22.7750 N   0  0  0  0  0  0  0  0  0  0  0  0
   10.3430    3.0950   26.1490 C   0  0  0  0  0  0  0  0  0  0  0  0
    8.9710    2.1050   17.0740 C   0  0  0  0  0  0  0  0  0  0  0  0
    9.9880    6.4640   26.6960 C   0  0  0  0  0  0  0  0  0  0  0  0
   11.5170    7.8690   25.4390 C   0  0  0  0  0  0  0  0  0  0  0  0
    9.4990    3.0760   28.4190 C   0  0  0  0  0  0  0  0  0  0  0  0
    6.6660    5.7170   18.7640 C   0  0  0  0  0  0  0  0  0  0  0  0
    9.9570    5.2310   27.4490 C   0  0  0  0  0  0  0  0  0  0  0  0
   12.8100    8.0160   25.0310 O   0  0  0  0  0  0  0  0  0  0  0  0
    8.0770    8.2870   24.0550 C   0  0  0  0  0  0  0  0  0  0  0  0
  1 27  2  0  0  0  0
  1 31  1  0  0  0  0
  1 33  1  0  0  0  0
  2  9  2  0  0  0  0
  2 15  1  0  0  0  0
  3 20  1  0  0  0  0
  4 13  2  0  0  0  0
  4 29  1  0  0  0  0
  5 25  1  0  0  0  0
  5 32  1  0  0  0  0
  6 17  1  0  0  0  0
  7 21  1  0  0  0  0
  7 26  1  0  0  0  0
  7 35  2  0  0  0  0
  8 16  2  0  0  0  0
  8 21  1  0  0  0  0
  8 25  1  0  0  0  0
  9 10  1  0  0  0  0
 10 28  2  0  0  0  0
 11 19  1  0  0  0  0
 11 22  2  0  0  0  0
 12 14  1  0  0  0  0
 12 26  2  0  0  0  0
 13 14  1  0  0  0  0
 13 35  1  0  0  0  0
 14 30  2  0  0  0  0
 15 24  1  0  0  0  0
 15 32  1  0  0  0  0
 17 23  2  0  0  0  0
 17 28  1  0  0  0  0
 18 24  2  0  0  0  0
 18 28  1  0  0  0  0
 19 31  2  0  0  0  0
 20 29  2  0  0  0  0
 20 30  1  0  0  0  0
 22 27  1  0  0  0  0
 29 33  1  0  0  0  0
 30 34  1  0  0  0  0
M  END
>  <Original_Directory>
2ei6_B_rec_2p94_me4_lig_tt_docked_0_pocket10

>  <Original_Filename>
2ei6_B_rec_2p94_me4_lig_tt_docked_0_pocket10_gen_sample_10.sdf

>  <Molecule_ID>
sample_10

>  <logS>
-5.3568702

$$$$