/tmp/tmpnx0587m0
  MOE2022           3D

 10 11  0  0  1  0  0  0  0  0999 V2000
   22.4600  -16.7200   24.7670 O   0  0  0  0  0  0  0  0  0  0  0  0
   19.9130  -19.3420   25.3610 C   0  0  0  0  0  0  0  0  0  0  0  0
   21.3130  -17.5070   24.8610 C   0  0  3  0  0  0  0  0  0  0  0  0
   19.3080  -18.6980   22.6930 C   0  0  0  0  0  0  0  0  0  0  0  0
   19.0080  -18.1100   25.2010 C   0  0  3  0  0  0  0  0  0  0  0  0
   21.1280  -18.9840   24.5070 C   0  0  3  0  0  0  0  0  0  0  0  0
   19.9700  -16.8900   25.1500 C   0  0  3  0  0  0  0  0  0  0  0  0
   18.4110  -18.1450   23.7850 C   0  0  0  0  0  0  0  0  0  0  0  0
   20.7410  -19.0930   23.0200 C   0  0  0  0  0  0  0  0  0  0  0  0
   19.9390  -16.2040   26.4130 O   0  0  0  0  0  0  0  0  0  0  0  0
  1  3  1  0  0  0  0
  2  5  1  0  0  0  0
  2  6  1  0  0  0  0
  3  6  1  0  0  0  0
  3  7  1  0  0  0  0
  4  8  2  0  0  0  0
  4  9  1  0  0  0  0
  5  7  1  0  0  0  0
  5  8  1  0  0  0  0
  6  9  1  0  0  0  0
  7 10  1  0  0  0  0
M  END
>  <Original_Directory>
4iie_A_rec_4iic_ifm_lig_tt_min_0_pocket10

>  <Original_Filename>
4iie_A_rec_4iic_ifm_lig_tt_min_0_pocket10_gen_sample_9.sdf

>  <Molecule_ID>
sample_9

>  <logS>
0.09454

$$$$