/tmp/tmpmk9jwscu
  MOE2022           3D

 16 18  0  0  1  0  0  0  0  0999 V2000
   25.9480   80.8470   34.9770 O   0  0  0  0  0  0  0  0  0  0  0  0
   26.6680   78.7390   34.5470 O   0  0  0  0  0  0  0  0  0  0  0  0
   26.9580   79.9140   35.2500 C   0  0  0  0  0  0  0  0  0  0  0  0
   31.8400   78.5910   36.6820 C   0  0  3  0  0  0  0  0  0  0  0  0
   30.6170   79.0050   38.6860 O   0  0  0  0  0  0  0  0  0  0  0  0
   29.3240   79.1300   36.6890 C   0  0  0  0  0  0  0  0  0  0  0  0
   28.1090   78.9940   37.2280 N   0  0  0  0  0  0  0  0  0  0  0  0
   31.6470   76.3960   37.4610 N   0  0  0  0  0  0  0  0  0  0  0  0
   28.3280   80.4220   34.7680 C   0  0  0  0  0  0  0  0  0  0  0  0
   32.3600   77.1930   36.4430 C   0  0  0  0  0  0  0  0  0  0  0  0
   31.8920   79.4490   35.4880 C   0  0  0  0  0  0  0  0  0  0  0  0
   30.2890   76.9480   37.4940 C   0  0  0  0  0  0  0  0  0  0  0  0
   30.8030   80.1500   35.0630 C   0  0  0  0  0  0  0  0  0  0  0  0
   30.4960   78.4580   37.3800 C   0  0  1  0  0  0  0  0  0  0  0  0
   26.9250   79.6910   36.7440 C   0  0  0  0  0  0  0  0  0  0  0  0
   29.5110   79.8950   35.5360 C   0  0  0  0  0  0  0  0  0  0  0  0
  1  3  1  0  0  0  0
  2  3  1  0  0  0  0
  3  9  1  0  0  0  0
  3 15  1  0  0  0  0
  4 10  1  0  0  0  0
  4 11  1  0  0  0  0
  4 14  1  0  0  0  0
  5 14  1  0  0  0  0
  6  7  2  0  0  0  0
  6 14  1  0  0  0  0
  6 16  1  0  0  0  0
  7 15  1  0  0  0  0
  8 10  1  0  0  0  0
  8 12  1  0  0  0  0
  9 16  2  0  0  0  0
 11 13  2  0  0  0  0
 12 14  1  0  0  0  0
 13 16  1  0  0  0  0
M  END
>  <Original_Directory>
5npc_A_rec_5npc_94e_lig_tt_docked_5_pocket10

>  <Original_Filename>
5npc_A_rec_5npc_94e_lig_tt_docked_5_pocket10_gen_sample_11.sdf

>  <Molecule_ID>
sample_11

>  <logS>
-0.45616999

$$$$