/tmp/tmp70dantc0
  MOE2022           3D

 27 30  0  0  1  0  0  0  0  0999 V2000
   14.0620   10.0510    3.8990 C   0  0  0  0  0  0  0  0  0  0  0  0
   14.3250    7.6320    0.2810 C   0  0  0  0  0  0  0  0  0  0  0  0
   15.5550    9.1010    6.1900 C   0  0  3  0  0  0  0  0  0  0  0  0
   14.0140    4.2690   -0.6100 C   0  0  0  0  0  0  0  0  0  0  0  0
   15.8570    8.5170    4.8330 C   0  0  0  0  0  0  0  0  0  0  0  0
   15.1160    9.1290    3.6760 C   0  0  0  0  0  0  0  0  0  0  0  0
   13.6610    7.8020   -0.8030 O   0  0  0  0  0  0  0  0  0  0  0  0
   16.2040    6.4810    1.4020 O   0  0  0  0  0  0  0  0  0  0  0  0
   13.4290    4.3630   -1.9990 C   0  0  0  0  0  0  0  0  0  0  0  0
   14.9320    5.2700   -0.1230 C   0  0  0  0  0  0  0  0  0  0  0  0
   13.7620    3.2570    0.0060 O   0  0  0  0  0  0  0  0  0  0  0  0
   11.4080    5.1690   -3.1880 C   0  0  0  0  0  0  0  0  0  0  0  0
   14.0510    9.8900    7.7650 C   0  0  3  0  0  0  0  0  0  0  0  0
   11.2310    4.3550   -4.2930 C   0  0  0  0  0  0  0  0  0  0  0  0
   15.1620    6.4460    0.4820 C   0  0  3  0  0  0  0  0  0  0  0  0
   15.2500    8.4370    2.3850 C   0  0  0  0  0  0  0  0  0  0  0  0
   12.7430    9.8560    8.3070 O   0  0  0  0  0  0  0  0  0  0  0  0
   12.0740    3.3270   -4.6920 C   0  0  0  0  0  0  0  0  0  0  0  0
   12.4250    5.2830   -2.2580 C   0  0  0  0  0  0  0  0  0  0  0  0
   15.8150    8.2560    7.4200 C   0  0  0  0  0  0  0  0  0  0  0  0
   16.3860    7.6200    2.1620 C   0  0  0  0  0  0  0  0  0  0  0  0
   15.0470    9.0010    8.5070 C   0  0  0  0  0  0  0  0  0  0  0  0
   13.8480    3.4170   -2.9260 C   0  0  0  0  0  0  0  0  0  0  0  0
   13.2330    2.9260   -4.0510 C   0  0  0  0  0  0  0  0  0  0  0  0
   14.0590    9.3530    6.3530 C   0  0  3  0  0  0  0  0  0  0  0  0
   14.2850    8.5530    1.3560 C   0  0  0  0  0  0  0  0  0  0  0  0
   13.4750   10.2330    5.2710 C   0  0  0  0  0  0  0  0  0  0  0  0
  1  6  1  0  0  0  0
  1 27  2  0  0  0  0
  2  7  1  0  0  0  0
  2 15  1  0  0  0  0
  2 26  2  0  0  0  0
  3  5  1  0  0  0  0
  3 20  1  0  0  0  0
  3 25  1  0  0  0  0
  4  9  1  0  0  0  0
  4 10  1  0  0  0  0
  4 11  2  0  0  0  0
  5  6  2  0  0  0  0
  6 16  1  0  0  0  0
  8 15  1  0  0  0  0
  8 21  1  0  0  0  0
  9 19  1  0  0  0  0
  9 23  2  0  0  0  0
 10 15  1  0  0  0  0
 12 14  2  0  0  0  0
 12 19  1  0  0  0  0
 13 17  1  0  0  0  0
 13 22  1  0  0  0  0
 13 25  1  0  0  0  0
 14 18  1  0  0  0  0
 16 21  2  0  0  0  0
 16 26  1  0  0  0  0
 18 24  2  0  0  0  0
 20 22  1  0  0  0  0
 23 24  1  0  0  0  0
 25 27  1  0  0  0  0
M  END
>  <Original_Directory>
3dhf_A_rec_4lvg_20o_lig_tt_docked_0_pocket10

>  <Original_Filename>
3dhf_A_rec_4lvg_20o_lig_tt_docked_0_pocket10_gen_sample_12.sdf

>  <Molecule_ID>
sample_12

>  <logS>
-3.0262499

$$$$