/tmp/tmpdt8vgfrl
  MOE2022           3D

 24 27  0  0  1  0  0  0  0  0999 V2000
  -46.1560    0.3160   10.5130 C   0  0  0  0  0  0  0  0  0  0  0  0
  -49.1350    1.3640    8.6770 C   0  0  0  0  0  0  0  0  0  0  0  0
  -48.3520    3.6380    8.8610 N   0  0  0  0  0  0  0  0  0  0  0  0
  -47.8550   -1.8510   11.1620 C   0  0  0  0  0  0  0  0  0  0  0  0
  -44.4030    2.0550    7.4270 C   0  0  0  0  0  0  0  0  0  0  0  0
  -43.7510    0.3060   12.6670 N   0  0  0  0  0  0  0  0  0  0  0  0
  -43.9250    3.2660    4.5640 O   0  0  0  0  0  0  0  0  0  0  0  0
  -46.0080   -0.4010   11.6990 C   0  0  0  0  0  0  0  0  0  0  0  0
  -46.9000   -1.4040   12.0620 C   0  0  0  0  0  0  0  0  0  0  0  0
  -47.7650    1.0050    8.7040 C   0  0  3  0  0  0  0  0  0  0  0  0
  -44.8300    1.0510    4.6410 C   0  0  0  0  0  0  0  0  0  0  0  0
  -45.1030   -0.1230   12.8710 C   0  0  3  0  0  0  0  0  0  0  0  0
  -42.5150    1.4110    4.2560 O   0  0  0  0  0  0  0  0  0  0  0  0
  -47.2960    0.0270    9.7160 C   0  0  0  0  0  0  0  0  0  0  0  0
  -43.6070    1.9520    4.9690 C   0  0  0  0  0  0  0  0  0  0  0  0
  -48.0320   -1.1520    9.9660 C   0  0  0  0  0  0  0  0  0  0  0  0
  -45.3400   -1.2260   13.8820 C   0  0  0  0  0  0  0  0  0  0  0  0
  -47.1880    3.2870    8.2320 C   0  0  0  0  0  0  0  0  0  0  0  0
  -45.7770    1.5800    7.0250 C   0  0  0  0  0  0  0  0  0  0  0  0
  -46.9000    1.9340    7.9440 C   0  0  3  0  0  0  0  0  0  0  0  0
  -45.9080    0.9240    5.7190 C   0  0  0  0  0  0  0  0  0  0  0  0
  -49.3680    2.7250    8.8900 C   0  0  0  0  0  0  0  0  0  0  0  0
  -46.6910   -1.8280   13.4980 C   0  0  0  0  0  0  0  0  0  0  0  0
  -43.2460    1.9000    6.4560 C   0  0  0  0  0  0  0  0  0  0  0  0
  1  8  2  0  0  0  0
  1 14  1  0  0  0  0
  2 10  1  0  0  0  0
  2 22  1  0  0  0  0
  3 18  1  0  0  0  0
  3 22  1  0  0  0  0
  4  9  2  0  0  0  0
  4 16  1  0  0  0  0
  5 19  2  0  0  0  0
  5 24  1  0  0  0  0
  6 12  1  0  0  0  0
  7 15  1  0  0  0  0
  8  9  1  0  0  0  0
  8 12  1  0  0  0  0
  9 23  1  0  0  0  0
 10 14  1  0  0  0  0
 10 20  1  0  0  0  0
 11 15  1  0  0  0  0
 11 21  2  0  0  0  0
 12 17  1  0  0  0  0
 13 15  1  0  0  0  0
 14 16  2  0  0  0  0
 15 24  1  0  0  0  0
 17 23  1  0  0  0  0
 18 20  1  0  0  0  0
 19 20  1  0  0  0  0
 19 21  1  0  0  0  0
M  END
>  <Original_Directory>
5tmg_A_rec_4gjb_0me_lig_tt_docked_0_pocket10

>  <Original_Filename>
5tmg_A_rec_4gjb_0me_lig_tt_docked_0_pocket10_gen_sample_9.sdf

>  <Molecule_ID>
sample_9

>  <logS>
-1.92193

$$$$