/tmp/tmpvjki_a71
  MOE2022           3D

 16 18  0  0  1  0  0  0  0  0999 V2000
   13.1960   -0.4060  -60.7640 C   0  0  0  0  0  0  0  0  0  0  0  0
   13.2550   -0.0710  -62.1170 C   0  0  0  0  0  0  0  0  0  0  0  0
    9.4370   -1.8170  -63.2670 C   0  0  0  0  0  0  0  0  0  0  0  0
   10.9670    0.4880  -60.2110 C   0  0  0  0  0  0  0  0  0  0  0  0
   12.1880   -0.0440  -59.9300 C   0  0  0  0  0  0  0  0  0  0  0  0
    9.1950   -2.1790  -65.6440 C   0  0  0  0  0  0  0  0  0  0  0  0
    9.2120    1.1100  -64.9830 C   0  0  0  0  0  0  0  0  0  0  0  0
   12.3420    1.1640  -64.0640 C   0  0  0  0  0  0  0  0  0  0  0  0
   10.8340   -0.0320  -62.4760 C   0  0  0  0  0  0  0  0  0  0  0  0
    9.0280   -2.6130  -64.3260 C   0  0  0  0  0  0  0  0  0  0  0  0
   10.0940   -0.6150  -63.5200 C   0  0  0  0  0  0  0  0  0  0  0  0
   12.1360    0.3770  -62.7960 C   0  0  0  0  0  0  0  0  0  0  0  0
   10.2050   -0.0340  -64.8910 C   0  0  1  0  0  0  0  0  0  0  0  0
    9.8970   -1.0300  -65.9800 C   0  0  0  0  0  0  0  0  0  0  0  0
   11.5900    0.5190  -65.2200 C   0  0  0  0  0  0  0  0  0  0  0  0
   10.2390    0.3070  -61.3190 N   0  0  0  0  0  0  0  0  0  0  0  0
  1  2  2  0  0  0  0
  1  5  1  0  0  0  0
  2 12  1  0  0  0  0
  3 10  1  0  0  0  0
  3 11  2  0  0  0  0
  4  5  1  0  0  0  0
  4 16  2  0  0  0  0
  6 10  2  0  0  0  0
  6 14  1  0  0  0  0
  7 13  1  0  0  0  0
  8 12  1  0  0  0  0
  8 15  1  0  0  0  0
  9 11  1  0  0  0  0
  9 12  2  0  0  0  0
  9 16  1  0  0  0  0
 11 13  1  0  0  0  0
 13 14  1  0  0  0  0
 13 15  1  0  0  0  0
M  END
>  <Original_Directory>
3v9b_A_rec_1zkn_ibm_lig_tt_min_0_pocket10

>  <Original_Filename>
3v9b_A_rec_1zkn_ibm_lig_tt_min_0_pocket10_gen_sample_1.sdf

>  <Molecule_ID>
sample_1

>  <logS>
-3.0185201

$$$$