
  MOE2022           3D

 35 40  0  0  1  0  0  0  0  0999 V2000
   -5.9560   11.6110   12.9790 C   0  0  0  0  0  0  0  0  0  0  0  0
   -6.0030   12.6670   13.9380 C   0  0  0  0  0  0  0  0  0  0  0  0
  -10.4330   15.6520   11.4080 O   0  0  0  0  0  0  0  0  0  0  0  0
   -9.9630   15.0800   12.4000 C   0  0  0  0  0  0  0  0  0  0  0  0
   -1.1130   15.5010   11.4370 C   0  0  3  0  0  0  0  0  0  0  0  0
    2.1700   15.2510   10.0820 C   0  0  0  0  0  0  0  0  0  0  0  0
    1.0850   15.4670   12.2730 C   0  0  0  0  0  0  0  0  0  0  0  0
   -7.2310   12.8580   14.8260 C   0  0  0  0  0  0  0  0  0  0  0  0
  -11.6730   12.2230   13.6670 C   0  0  0  0  0  0  0  0  0  0  0  0
  -12.7540   11.6760   13.9210 O   0  0  0  0  0  0  0  0  0  0  0  0
    1.1900   15.7810   10.9120 C   0  0  3  0  0  0  0  0  0  0  0  0
    3.4320   14.7500   12.9020 C   0  0  0  0  0  0  0  0  0  0  0  0
   -1.2780   14.0770   11.1940 N   0  0  0  0  0  0  0  0  0  0  0  0
   -3.6690   13.1790   13.4160 C   0  0  0  0  0  0  0  0  0  0  0  0
    2.0760   14.9860   13.1010 C   0  0  0  0  0  0  0  0  0  0  0  0
    4.0550   14.6720   11.6610 C   0  0  0  0  0  0  0  0  0  0  0  0
   -8.4160   13.7020   14.3560 C   0  0  3  0  0  0  0  0  0  0  0  0
   -0.4130   17.6490   10.3340 C   0  0  0  0  0  0  0  0  0  0  0  0
   -0.3320   15.6930   12.7480 C   0  0  0  0  0  0  0  0  0  0  0  0
   -4.8680   13.5210   14.0970 C   0  0  0  0  0  0  0  0  0  0  0  0
  -11.5060   13.0440   12.6010 N   0  0  0  0  0  0  0  0  0  0  0  0
   -0.2010   12.8290   12.8430 O   0  0  0  0  0  0  0  0  0  0  0  0
   -0.1910   16.1400   10.3900 C   0  0  2  0  0  0  0  0  0  0  0  0
   -4.7670   11.3510   12.2630 C   0  0  0  0  0  0  0  0  0  0  0  0
  -10.3790   13.7870   12.8790 C   0  0  0  0  0  0  0  0  0  0  0  0
   -2.3090   13.8380   13.4760 C   0  0  0  0  0  0  0  0  0  0  0  0
    3.4170   14.7640   10.4250 C   0  0  0  0  0  0  0  0  0  0  0  0
   -1.4710   13.1950   12.3330 C   0  0  1  0  0  0  0  0  0  0  0  0
   -3.5970   12.0860   12.5560 C   0  0  0  0  0  0  0  0  0  0  0  0
   -9.6950   13.1620   13.9330 C   0  0  0  0  0  0  0  0  0  0  0  0
   -2.2460   11.9480   11.8970 C   0  0  0  0  0  0  0  0  0  0  0  0
   -0.4430   15.6210    9.0770 O   0  0  0  0  0  0  0  0  0  0  0  0
   -9.0250   15.7540   13.2030 N   0  0  0  0  0  0  0  0  0  0  0  0
   -8.2910   15.0780   14.2010 C   0  0  0  0  0  0  0  0  0  0  0  0
  -10.5380   12.2030   14.4630 N   0  0  0  0  0  0  0  0  0  0  0  0
  1  2  2  0  0  0  0
  1 24  1  0  0  0  0
  2  8  1  0  0  0  0
  2 20  1  0  0  0  0
  3  4  2  0  0  0  0
  4 25  1  0  0  0  0
  4 33  1  0  0  0  0
  5 13  1  0  0  0  0
  5 19  1  0  0  0  0
  5 23  1  0  0  0  0
  6 11  1  0  0  0  0
  6 27  2  0  0  0  0
  7 11  1  0  0  0  0
  7 15  2  0  0  0  0
  7 19  1  0  0  0  0
  8 17  1  0  0  0  0
  9 10  2  0  0  0  0
  9 21  1  0  0  0  0
  9 35  1  0  0  0  0
 11 23  1  0  0  0  0
 12 15  1  0  0  0  0
 12 16  2  0  0  0  0
 13 28  1  0  0  0  0
 14 20  2  0  0  0  0
 14 26  1  0  0  0  0
 14 29  1  0  0  0  0
 16 27  1  0  0  0  0
 17 30  1  0  0  0  0
 17 34  1  0  0  0  0
 18 23  1  0  0  0  0
 21 25  1  0  0  0  0
 22 28  1  0  0  0  0
 23 32  1  0  0  0  0
 24 29  2  0  0  0  0
 25 30  2  0  0  0  0
 26 28  1  0  0  0  0
 28 31  1  0  0  0  0
 29 31  1  0  0  0  0
 30 35  1  0  0  0  0
 33 34  2  0  0  0  0
M  END
>  <Original_Directory>
5is8_C_rec_2y1w_sfg_lig_tt_docked_0_pocket10

>  <Original_Filename>
5is8_C_rec_2y1w_sfg_lig_tt_docked_0_pocket10_gen_sample_10.sdf

>  <Molecule_ID>
sample_10

>  <logS>
-4.0664701

$$$$