/tmp/tmppptq3ltg
  MOE2022           3D

 13 13  0  0  1  0  0  0  0  0999 V2000
  -42.5170    5.9390    0.5480 C   0  0  0  0  0  0  0  0  0  0  0  0
  -42.0870    3.7260    1.8260 C   0  0  0  0  0  0  0  0  0  0  0  0
  -39.4760    3.6850    0.6080 C   0  0  3  0  0  0  0  0  0  0  0  0
  -40.2130    5.0150    0.6780 C   0  0  3  0  0  0  0  0  0  0  0  0
  -41.3340    1.7420    3.0290 O   0  0  0  0  0  0  0  0  0  0  0  0
  -39.5730    5.8620    1.6210 O   0  0  0  0  0  0  0  0  0  0  0  0
  -40.2190    3.7240    3.3490 O   0  0  0  0  0  0  0  0  0  0  0  0
  -42.9720    5.7970   -0.6380 O   0  0  0  0  0  0  0  0  0  0  0  0
  -41.6750    4.7700    0.9760 C   0  0  3  0  0  0  0  0  0  0  0  0
  -42.5210    6.9540    1.2410 O   0  0  0  0  0  0  0  0  0  0  0  0
  -40.0770    2.5720    1.2770 O   0  0  0  0  0  0  0  0  0  0  0  0
  -39.1920    3.3590   -0.7460 O   0  0  0  0  0  0  0  0  0  0  0  0
  -40.9110    2.9110    2.4080 C   0  0  0  0  0  0  0  0  0  0  0  0
  1  8  2  0  0  0  0
  1  9  1  0  0  0  0
  1 10  1  0  0  0  0
  2  9  1  0  0  0  0
  2 13  1  0  0  0  0
  3  4  1  0  0  0  0
  3 11  1  0  0  0  0
  3 12  1  0  0  0  0
  4  6  1  0  0  0  0
  4  9  1  0  0  0  0
  5 13  1  0  0  0  0
  7 13  1  0  0  0  0
 11 13  1  0  0  0  0
M  END
>  <Original_Directory>
1p7l_A_rec_1p7l_ppk_lig_tt_docked_0_pocket10

>  <Original_Filename>
1p7l_A_rec_1p7l_ppk_lig_tt_docked_0_pocket10_gen_sample_13.sdf

>  <Molecule_ID>
sample_13

>  <logS>
0.98140001

$$$$