/tmp/tmp3fu56ek_
  MOE2022           3D

 27 32  0  0  1  0  0  0  0  0999 V2000
  -35.8030  106.3840  -13.1410 C   0  0  3  0  0  0  0  0  0  0  0  0
  -40.0500  105.8880  -18.8230 C   0  0  0  0  0  0  0  0  0  0  0  0
  -40.3950  104.5560  -18.7260 C   0  0  0  0  0  0  0  0  0  0  0  0
  -36.1030  103.7120  -12.7070 C   0  0  3  0  0  0  0  0  0  0  0  0
  -36.4950  104.6860  -11.5960 C   0  0  3  0  0  0  0  0  0  0  0  0
  -33.4600  103.0670  -11.1880 C   0  0  0  0  0  0  0  0  0  0  0  0
  -33.6930  103.1360  -12.6950 C   0  0  0  0  0  0  0  0  0  0  0  0
  -34.5040  105.5870  -12.9100 C   0  0  3  0  0  0  0  0  0  0  0  0
  -37.2320  102.5040  -14.5790 C   0  0  0  0  0  0  0  0  0  0  0  0
  -34.7260  104.1220  -13.2550 C   0  0  3  0  0  0  0  0  0  0  0  0
  -40.0770  106.7340  -17.7500 C   0  0  0  0  0  0  0  0  0  0  0  0
  -39.4180  105.2380  -15.8700 C   0  0  0  0  0  0  0  0  0  0  0  0
  -39.7940  106.4380  -16.4440 C   0  0  0  0  0  0  0  0  0  0  0  0
  -38.0980  102.3890  -15.7010 C   0  0  0  0  0  0  0  0  0  0  0  0
  -35.2580  104.8580  -10.6870 C   0  0  3  0  0  0  0  0  0  0  0  0
  -37.0540  103.6890  -13.8690 C   0  0  3  0  0  0  0  0  0  0  0  0
  -40.6710  103.9350  -17.5120 C   0  0  0  0  0  0  0  0  0  0  0  0
  -38.7360  105.2920  -14.6240 C   0  0  0  0  0  0  0  0  0  0  0  0
  -34.6320  103.5040  -10.3110 C   0  0  0  0  0  0  0  0  0  0  0  0
  -36.3810  106.0670  -14.5320 C   0  0  0  0  0  0  0  0  0  0  0  0
  -41.8090  103.1850  -17.4190 N   0  0  0  0  0  0  0  0  0  0  0  0
  -39.8140  104.0100  -16.4120 C   0  0  0  0  0  0  0  0  0  0  0  0
  -40.5020  101.9740  -15.1100 C   0  0  0  0  0  0  0  0  0  0  0  0
  -36.7870  106.0350  -12.1310 N   0  0  0  0  0  0  0  0  0  0  0  0
  -39.4180  102.8110  -15.7500 C   0  0  3  0  0  0  0  0  0  0  0  0
  -37.3830  104.9280  -14.4720 C   0  0  3  0  0  0  0  0  0  0  0  0
  -34.2460  105.7510  -11.4040 C   0  0  0  0  0  0  0  0  0  0  0  0
  1  8  1  0  0  0  0
  1 20  1  0  0  0  0
  1 24  1  0  0  0  0
  2  3  2  0  0  0  0
  2 11  1  0  0  0  0
  3 17  1  0  0  0  0
  4  5  1  0  0  0  0
  4 10  1  0  0  0  0
  4 16  1  0  0  0  0
  5 15  1  0  0  0  0
  5 24  1  0  0  0  0
  6  7  1  0  0  0  0
  6 19  1  0  0  0  0
  7 10  1  0  0  0  0
  8 10  1  0  0  0  0
  8 27  1  0  0  0  0
  9 14  1  0  0  0  0
  9 16  1  0  0  0  0
 11 13  1  0  0  0  0
 12 13  2  0  0  0  0
 12 18  1  0  0  0  0
 12 22  1  0  0  0  0
 14 25  1  0  0  0  0
 15 19  1  0  0  0  0
 15 27  1  0  0  0  0
 16 26  1  0  0  0  0
 17 21  1  0  0  0  0
 17 22  2  0  0  0  0
 18 26  1  0  0  0  0
 20 26  1  0  0  0  0
 22 25  1  0  0  0  0
 23 25  1  0  0  0  0
M  END
>  <Original_Directory>
3sfk_A_rec_5boo_d65_lig_tt_docked_1_pocket10

>  <Original_Filename>
3sfk_A_rec_5boo_d65_lig_tt_docked_1_pocket10_gen_sample_7.sdf

>  <Molecule_ID>
sample_7

>  <logS>
-5.45612

$$$$