/tmp/tmpbrx0hls3
  MOE2022           3D

 30 35  0  0  1  0  0  0  0  0999 V2000
   -5.9480   48.7770  -18.3910 C   0  0  0  0  0  0  0  0  0  0  0  0
   -3.9440   49.8740  -19.0950 O   0  0  0  0  0  0  0  0  0  0  0  0
   -5.8320   49.3550  -17.1670 O   0  0  0  0  0  0  0  0  0  0  0  0
   -5.0220   44.5590  -23.1310 C   0  0  3  0  0  0  0  0  0  0  0  0
   -6.9960   47.9250  -18.6760 C   0  0  0  0  0  0  0  0  0  0  0  0
   -3.3820   43.0050  -21.3140 C   0  0  0  0  0  0  0  0  0  0  0  0
   -5.9720   48.3370  -25.7380 C   0  0  0  0  0  0  0  0  0  0  0  0
   -5.0680   44.6960  -20.6530 C   0  0  0  0  0  0  0  0  0  0  0  0
   -4.4560   43.4490  -20.5640 C   0  0  0  0  0  0  0  0  0  0  0  0
   -6.9850   47.2120  -19.8630 C   0  0  0  0  0  0  0  0  0  0  0  0
   -5.0010   46.6410  -24.3290 C   0  0  3  0  0  0  0  0  0  0  0  0
   -3.5440   44.2560  -23.4250 C   0  0  0  0  0  0  0  0  0  0  0  0
   -3.4830   49.0020  -26.6530 C   0  0  0  0  0  0  0  0  0  0  0  0
   -4.8530   50.3400  -25.1140 C   0  0  0  0  0  0  0  0  0  0  0  0
   -5.0020   45.4620  -21.9190 C   0  0  3  0  0  0  0  0  0  0  0  0
   -3.7810   47.6890  -26.2730 C   0  0  0  0  0  0  0  0  0  0  0  0
   -4.9650   49.0250  -19.3480 C   0  0  0  0  0  0  0  0  0  0  0  0
   -6.8700   48.2950  -26.6120 O   0  0  0  0  0  0  0  0  0  0  0  0
   -5.7220   45.3030  -24.2540 C   0  0  3  0  0  0  0  0  0  0  0  0
   -5.7270   49.3130  -24.7630 C   0  0  3  0  0  0  0  0  0  0  0  0
   -5.9940   47.4250  -20.7980 C   0  0  0  0  0  0  0  0  0  0  0  0
   -3.1620   43.0220  -22.6210 C   0  0  0  0  0  0  0  0  0  0  0  0
   -5.8790   48.8520  -23.3450 C   0  0  0  0  0  0  0  0  0  0  0  0
   -4.9720   47.3340  -25.6260 C   0  0  3  0  0  0  0  0  0  0  0  0
   -4.0030   50.1980  -26.2230 C   0  0  0  0  0  0  0  0  0  0  0  0
   -7.1890   45.5030  -23.9070 C   0  0  0  0  0  0  0  0  0  0  0  0
   -5.2350   47.4970  -23.1270 C   0  0  3  0  0  0  0  0  0  0  0  0
   -7.2990   46.1680  -22.5360 C   0  0  0  0  0  0  0  0  0  0  0  0
   -5.9200   46.6320  -22.0780 C   0  0  1  0  0  0  0  0  0  0  0  0
   -4.9780   48.3400  -20.5470 C   0  0  0  0  0  0  0  0  0  0  0  0
  1  3  1  0  0  0  0
  1  5  1  0  0  0  0
  1 17  2  0  0  0  0
  2 17  1  0  0  0  0
  4 12  1  0  0  0  0
  4 15  1  0  0  0  0
  4 19  1  0  0  0  0
  5 10  2  0  0  0  0
  6  9  1  0  0  0  0
  6 22  1  0  0  0  0
  7 18  2  0  0  0  0
  7 20  1  0  0  0  0
  7 24  1  0  0  0  0
  8  9  1  0  0  0  0
  8 15  1  0  0  0  0
 10 21  1  0  0  0  0
 11 19  1  0  0  0  0
 11 24  1  0  0  0  0
 11 27  1  0  0  0  0
 12 22  1  0  0  0  0
 13 16  1  0  0  0  0
 13 25  2  0  0  0  0
 14 20  1  0  0  0  0
 14 25  1  0  0  0  0
 15 29  1  0  0  0  0
 16 24  1  0  0  0  0
 17 30  1  0  0  0  0
 19 26  1  0  0  0  0
 20 23  1  0  0  0  0
 21 29  1  0  0  0  0
 21 30  2  0  0  0  0
 23 27  1  0  0  0  0
 26 28  1  0  0  0  0
 27 29  1  0  0  0  0
 28 29  1  0  0  0  0
M  END
>  <Original_Directory>
3h0j_A_rec_5ctb_57j_lig_tt_docked_3_pocket10

>  <Original_Filename>
3h0j_A_rec_5ctb_57j_lig_tt_docked_3_pocket10_gen_sample_7.sdf

>  <Molecule_ID>
sample_7

>  <logS>
-7.0605102

$$$$