
  MOE2022           3D

 21 23  0  0  1  0  0  0  0  0999 V2000
   13.0190    7.8920   27.9450 C   0  0  0  0  0  0  0  0  0  0  0  0
   11.6450    3.5660   25.7390 C   0  0  0  0  0  0  0  0  0  0  0  0
   11.8300    5.7930   28.0810 C   0  0  0  0  0  0  0  0  0  0  0  0
   13.3030    3.0630   27.3900 C   0  0  0  0  0  0  0  0  0  0  0  0
   13.3700    1.7270   26.9630 C   0  0  3  0  0  0  0  0  0  0  0  0
   17.0760    8.4670   25.5980 C   0  0  0  0  0  0  0  0  0  0  0  0
   15.4470    9.9840   24.7110 C   0  0  0  0  0  0  0  0  0  0  0  0
   14.4550    9.3160   25.4180 C   0  0  0  0  0  0  0  0  0  0  0  0
   16.7540    9.5330   24.7710 C   0  0  0  0  0  0  0  0  0  0  0  0
   13.8170    2.2210   23.5220 O   0  0  0  0  0  0  0  0  0  0  0  0
   16.0900    7.8660   26.3610 C   0  0  0  0  0  0  0  0  0  0  0  0
   13.5900    1.3330   25.6630 C   0  0  0  0  0  0  0  0  0  0  0  0
   12.9410    0.7870   27.8530 O   0  0  0  0  0  0  0  0  0  0  0  0
   12.5180    3.9660   26.7080 N   0  0  0  0  0  0  0  0  0  0  0  0
   12.5690    5.3090   27.0030 C   0  0  0  0  0  0  0  0  0  0  0  0
   13.1480    2.1060   24.5700 C   0  0  0  0  0  0  0  0  0  0  0  0
   12.0310    7.0990   28.5120 C   0  0  0  0  0  0  0  0  0  0  0  0
   13.3780    6.1900   26.2900 C   0  0  0  0  0  0  0  0  0  0  0  0
   13.7010    7.4340   26.8230 C   0  0  0  0  0  0  0  0  0  0  0  0
   14.7660    8.2360   26.2240 C   0  0  0  0  0  0  0  0  0  0  0  0
   11.9970    2.8160   24.6680 N   0  0  0  0  0  0  0  0  0  0  0  0
  1 17  2  0  0  0  0
  1 19  1  0  0  0  0
  2 14  1  0  0  0  0
  2 21  1  0  0  0  0
  3 15  2  0  0  0  0
  3 17  1  0  0  0  0
  4  5  1  0  0  0  0
  4 14  1  0  0  0  0
  5 12  1  0  0  0  0
  5 13  1  0  0  0  0
  6  9  2  0  0  0  0
  6 11  1  0  0  0  0
  7  8  2  0  0  0  0
  7  9  1  0  0  0  0
  8 20  1  0  0  0  0
 10 16  2  0  0  0  0
 11 20  2  0  0  0  0
 12 16  1  0  0  0  0
 14 15  1  0  0  0  0
 15 18  1  0  0  0  0
 16 21  1  0  0  0  0
 18 19  2  0  0  0  0
 19 20  1  0  0  0  0
M  END
>  <Original_Directory>
4hy0_A_rec_5m6m_7h8_lig_tt_min_0_pocket10

>  <Original_Filename>
4hy0_A_rec_5m6m_7h8_lig_tt_min_0_pocket10_gen_sample_10.sdf

>  <Molecule_ID>
sample_10

>  <logS>
-3.4449601

$$$$