/tmp/tmpr6cm7smi
  MOE2022           3D

  9  8  0  0  0  0  0  0  0  0999 V2000
   73.7360   37.7230   24.9970 P   0  0  0  0  0  0  0  0  0  0  0  0
   73.4340   39.1380   25.9630 C   0  0  0  0  0  0  0  0  0  0  0  0
   73.9390   41.3810   26.8520 C   0  0  0  0  0  0  0  0  0  0  0  0
   74.1330   39.8920   27.0790 C   0  0  0  0  0  0  0  0  0  0  0  0
   73.7840   38.2080   23.5900 O   0  0  0  0  0  0  0  0  0  0  0  0
   74.5260   42.3540   27.8430 C   0  0  0  0  0  0  0  0  0  0  0  0
   72.6450   36.7520   25.2230 O   0  0  0  0  0  0  0  0  0  0  0  0
   75.3850   41.8230   28.8040 O   0  0  0  0  0  0  0  0  0  0  0  0
   75.0590   37.1510   25.3850 O   0  0  0  0  0  0  0  0  0  0  0  0
  1  2  1  0  0  0  0
  1  5  2  0  0  0  0
  1  7  1  0  0  0  0
  1  9  1  0  0  0  0
  2  4  1  0  0  0  0
  3  4  1  0  0  0  0
  3  6  2  0  0  0  0
  6  8  1  0  0  0  0
M  END
>  <Original_Directory>
5iil_A_rec_3mda_ppv_lig_tt_docked_3_pocket10

>  <Original_Filename>
5iil_A_rec_3mda_ppv_lig_tt_docked_3_pocket10_gen_sample_3.sdf

>  <Molecule_ID>
sample_3

>  <logS>
1.31596

$$$$