/tmp/tmp_dnlj115
  MOE2022           3D

 10  9  0  0  0  0  0  0  0  0999 V2000
    9.2440  -49.3460   53.8680 O   0  0  0  0  0  0  0  0  0  0  0  0
    9.9810  -51.5050   52.9780 O   0  0  0  0  0  0  0  0  0  0  0  0
   11.4000  -53.3050   52.6210 N   0  0  0  0  0  0  0  0  0  0  0  0
   12.4000  -51.1750   53.1620 C   0  0  0  0  0  0  0  0  0  0  0  0
   12.9330  -50.7810   52.1090 O   0  0  0  0  0  0  0  0  0  0  0  0
    7.8260  -51.3170   53.7330 O   0  0  0  0  0  0  0  0  0  0  0  0
   12.8070  -50.8730   54.2950 O   0  0  0  0  0  0  0  0  0  0  0  0
    9.6960  -51.2050   55.3510 O   0  0  0  0  0  0  0  0  0  0  0  0
   11.2040  -52.1230   53.0400 C   0  0  0  0  0  0  0  0  0  0  0  0
    9.1760  -50.8060   54.0550 S   0  0  0  0  0  0  0  0  0  0  0  0
  1 10  1  0  0  0  0
  2  9  1  0  0  0  0
  2 10  1  0  0  0  0
  3  9  2  0  0  0  0
  4  5  2  0  0  0  0
  4  7  1  0  0  0  0
  4  9  1  0  0  0  0
  6 10  1  0  0  0  0
  8 10  1  0  0  0  0
M  END
>  <Original_Directory>
1fxp_B_rec_3e0i_pep_lig_tt_min_0_pocket10

>  <Original_Filename>
1fxp_B_rec_3e0i_pep_lig_tt_min_0_pocket10_gen_sample_9.sdf

>  <Molecule_ID>
sample_9

>  <logS>
-0.32778001

$$$$