/tmp/tmpknwho1w7
  MOE2022           3D

 30 34  0  0  1  0  0  0  0  0999 V2000
    9.5200   14.2650  -13.0770 C   0  0  3  0  0  0  0  0  0  0  0  0
    9.1710   18.8050   -5.4620 C   0  0  0  0  0  0  0  0  0  0  0  0
   11.5270   15.9320  -10.4340 C   0  0  0  0  0  0  0  0  0  0  0  0
    7.9170   18.2610   -7.4330 C   0  0  0  0  0  0  0  0  0  0  0  0
   10.5850   12.4930  -14.3250 C   0  0  0  0  0  0  0  0  0  0  0  0
    6.3150   19.3830   -5.7950 C   0  0  0  0  0  0  0  0  0  0  0  0
    7.3130   14.5210  -13.9510 C   0  0  0  0  0  0  0  0  0  0  0  0
   10.4610   15.1970  -10.9220 C   0  0  0  0  0  0  0  0  0  0  0  0
   10.3100   17.3380   -8.7380 C   0  0  0  0  0  0  0  0  0  0  0  0
   12.8160   17.6120   -9.3110 C   0  0  0  0  0  0  0  0  0  0  0  0
    8.1620   14.3630  -12.8680 C   0  0  0  0  0  0  0  0  0  0  0  0
   13.5990   17.1270  -10.5250 C   0  0  3  0  0  0  0  0  0  0  0  0
   11.6470   15.1280  -13.0780 C   0  0  0  0  0  0  0  0  0  0  0  0
   11.6140   16.6900   -9.1550 C   0  0  3  0  0  0  0  0  0  0  0  0
   11.2460   19.3340   -7.5810 C   0  0  0  0  0  0  0  0  0  0  0  0
   10.4980   14.8930  -12.2850 C   0  0  0  0  0  0  0  0  0  0  0  0
    9.1070   14.0580  -15.5020 C   0  0  3  0  0  0  0  0  0  0  0  0
   13.9810   18.2110  -11.3530 O   0  0  0  0  0  0  0  0  0  0  0  0
   11.2430   17.1780   -6.3950 C   0  0  0  0  0  0  0  0  0  0  0  0
    6.7110   18.6860   -6.8970 C   0  0  0  0  0  0  0  0  0  0  0  0
   10.4710   18.0370   -7.3900 C   0  0  0  0  0  0  0  0  0  0  0  0
   10.0960   13.9250  -14.3960 C   0  0  1  0  0  0  0  0  0  0  0  0
    9.4140   13.6650  -16.9050 C   0  0  0  0  0  0  0  0  0  0  0  0
    8.4680   19.7690   -4.7820 C   0  0  0  0  0  0  0  0  0  0  0  0
    7.8590   14.5670  -15.2520 C   0  0  0  0  0  0  0  0  0  0  0  0
   12.7610   15.7350  -12.5360 C   0  0  0  0  0  0  0  0  0  0  0  0
    9.1340   18.3810   -6.7800 C   0  0  0  0  0  0  0  0  0  0  0  0
   12.6620   16.1810  -11.2290 C   0  0  0  0  0  0  0  0  0  0  0  0
   11.3360   14.8410  -14.5360 C   0  0  0  0  0  0  0  0  0  0  0  0
    7.0770   19.9160   -4.7580 C   0  0  0  0  0  0  0  0  0  0  0  0
  1 11  1  0  0  0  0
  1 16  1  0  0  0  0
  1 22  1  0  0  0  0
  2 24  1  0  0  0  0
  2 27  2  0  0  0  0
  3  8  1  0  0  0  0
  3 14  1  0  0  0  0
  3 28  2  0  0  0  0
  4 20  2  0  0  0  0
  4 27  1  0  0  0  0
  5 22  1  0  0  0  0
  6 20  1  0  0  0  0
  6 30  2  0  0  0  0
  7 11  2  0  0  0  0
  7 25  1  0  0  0  0
  8 16  2  0  0  0  0
  9 14  1  0  0  0  0
  9 21  1  0  0  0  0
 10 12  1  0  0  0  0
 10 14  1  0  0  0  0
 12 18  1  0  0  0  0
 12 28  1  0  0  0  0
 13 16  1  0  0  0  0
 13 26  2  0  0  0  0
 13 29  1  0  0  0  0
 15 21  1  0  0  0  0
 17 22  1  0  0  0  0
 17 23  1  0  0  0  0
 17 25  1  0  0  0  0
 19 21  1  0  0  0  0
 21 27  1  0  0  0  0
 22 29  1  0  0  0  0
 24 30  1  0  0  0  0
 26 28  1  0  0  0  0
M  END
>  <Original_Directory>
4hxm_A_rec_5d3h_57g_lig_tt_min_0_pocket10

>  <Original_Filename>
4hxm_A_rec_5d3h_57g_lig_tt_min_0_pocket10_gen_sample_5.sdf

>  <Molecule_ID>
sample_5

>  <logS>
-8.5342197

$$$$