/tmp/tmpn2jgx19t
  MOE2022           3D

 11 11  0  0  0  0  0  0  0  0999 V2000
    8.8740  -19.7850   78.0350 C   0  0  0  0  0  0  0  0  0  0  0  0
    5.8840  -19.7270   80.1070 O   0  0  0  0  0  0  0  0  0  0  0  0
   10.4140  -21.2330   79.2020 C   0  0  0  0  0  0  0  0  0  0  0  0
    9.3270  -22.0200   79.5930 C   0  0  0  0  0  0  0  0  0  0  0  0
    8.0540  -21.4960   79.4150 C   0  0  0  0  0  0  0  0  0  0  0  0
   10.1790  -20.2420   78.2340 C   0  0  0  0  0  0  0  0  0  0  0  0
    8.4380  -19.1750   76.7390 C   0  0  0  0  0  0  0  0  0  0  0  0
    6.9520  -22.3100   79.3930 O   0  0  0  0  0  0  0  0  0  0  0  0
    6.9010  -19.2560   79.5830 C   0  0  0  0  0  0  0  0  0  0  0  0
    7.1500  -18.0240   79.5980 O   0  0  0  0  0  0  0  0  0  0  0  0
    7.9250  -20.1700   78.9960 C   0  0  0  0  0  0  0  0  0  0  0  0
  1  6  2  0  0  0  0
  1  7  1  0  0  0  0
  1 11  1  0  0  0  0
  2  9  1  0  0  0  0
  3  4  2  0  0  0  0
  3  6  1  0  0  0  0
  4  5  1  0  0  0  0
  5  8  1  0  0  0  0
  5 11  2  0  0  0  0
  9 10  2  0  0  0  0
  9 11  1  0  0  0  0
M  END
>  <Original_Directory>
4yts_C_rec_5j8l_tgj_lig_tt_min_0_pocket10

>  <Original_Filename>
4yts_C_rec_5j8l_tgj_lig_tt_min_0_pocket10_gen_sample_7.sdf

>  <Molecule_ID>
sample_7

>  <logS>
-1.4662499

$$$$