/tmp/tmpyxm0083g
  MOE2022           3D

  7  6  0  0  0  0  0  0  0  0999 V2000
   36.5070  -35.9540  -32.1230 O   0  0  0  0  0  0  0  0  0  0  0  0
   37.6670  -34.3330  -33.1140 N   0  0  0  0  0  0  0  0  0  0  0  0
   37.4020  -37.2850  -35.1590 O   0  0  0  0  0  0  0  0  0  0  0  0
   37.5770  -35.5000  -32.5450 C   0  0  0  0  0  0  0  0  0  0  0  0
   38.8280  -36.3710  -32.4980 C   0  0  0  0  0  0  0  0  0  0  0  0
   38.4950  -37.8870  -34.5240 C   0  0  0  0  0  0  0  0  0  0  0  0
   38.5120  -37.7680  -33.0170 C   0  0  0  0  0  0  0  0  0  0  0  0
  1  4  2  0  0  0  0
  2  4  1  0  0  0  0
  3  6  1  0  0  0  0
  4  5  1  0  0  0  0
  5  7  1  0  0  0  0
  6  7  1  0  0  0  0
M  END
>  <Original_Directory>
4xnd_A_rec_3b34_mli_lig_tt_min_0_pocket10

>  <Original_Filename>
4xnd_A_rec_3b34_mli_lig_tt_min_0_pocket10_gen_sample_11.sdf

>  <Molecule_ID>
sample_11

>  <logS>
0.24975

$$$$