/tmp/tmpgq2q2z88
  MOE2022           3D

 32 37  0  0  1  0  0  0  0  0999 V2000
    2.7850   29.2290    5.9160 C   0  0  0  0  0  0  0  0  0  0  0  0
    0.4330   29.7810    8.3370 C   0  0  0  0  0  0  0  0  0  0  0  0
   -4.1400   30.3680   12.3710 O   0  0  0  0  0  0  0  0  0  0  0  0
    5.0550   27.4720    8.9520 C   0  0  0  0  0  0  0  0  0  0  0  0
    0.6860   32.5170    8.0060 C   0  0  0  0  0  0  0  0  0  0  0  0
    1.0040   33.8700    7.9710 C   0  0  0  0  0  0  0  0  0  0  0  0
    4.5510   27.7400    6.6000 C   0  0  0  0  0  0  0  0  0  0  0  0
    2.6670   32.1100    6.8930 O   0  0  0  0  0  0  0  0  0  0  0  0
   -1.4410   32.8120    9.1620 C   0  0  0  0  0  0  0  0  0  0  0  0
    6.3590   26.3690    7.2730 N   0  0  0  0  0  0  0  0  0  0  0  0
   -0.4310   31.9950    8.6450 C   0  0  0  0  0  0  0  0  0  0  0  0
   -2.7640   33.5890   11.2430 C   0  0  0  0  0  0  0  0  0  0  0  0
   -2.0000   32.5020   10.4970 C   0  0  3  0  0  0  0  0  0  0  0  0
    1.6180   31.6550    7.4660 C   0  0  0  0  0  0  0  0  0  0  0  0
   -3.2910   31.3970   11.9290 C   0  0  3  0  0  0  0  0  0  0  0  0
    5.4880   26.7300    6.3000 C   0  0  0  0  0  0  0  0  0  0  0  0
    3.4640   29.1440    8.2360 C   0  0  0  0  0  0  0  0  0  0  0  0
    7.6980   26.3900    6.9270 O   0  0  0  0  0  0  0  0  0  0  0  0
   -0.5410   30.6190    8.8390 C   0  0  0  0  0  0  0  0  0  0  0  0
    5.4010   25.9960    5.3110 O   0  0  0  0  0  0  0  0  0  0  0  0
   -4.9170   32.6500   10.7100 C   0  0  0  0  0  0  0  0  0  0  0  0
    4.4150   28.1760    7.9270 C   0  0  0  0  0  0  0  0  0  0  0  0
    1.4910   30.3010    7.6300 C   0  0  0  0  0  0  0  0  0  0  0  0
   -3.9210   32.7790   11.8620 C   0  0  3  0  0  0  0  0  0  0  0  0
   -1.9850   33.7420    8.3660 N   0  0  0  0  0  0  0  0  0  0  0  0
    0.1230   34.9030    8.1090 C   0  0  0  0  0  0  0  0  0  0  0  0
    2.5730   29.5500    7.2550 C   0  0  0  0  0  0  0  0  0  0  0  0
    6.0730   26.6290    8.5950 C   0  0  0  0  0  0  0  0  0  0  0  0
   -4.2280   31.6800    9.7430 C   0  0  0  0  0  0  0  0  0  0  0  0
   -2.9380   31.3000   10.4430 C   0  0  3  0  0  0  0  0  0  0  0  0
    3.8080   28.3540    5.5870 C   0  0  0  0  0  0  0  0  0  0  0  0
   -1.2370   34.7980    8.0490 C   0  0  0  0  0  0  0  0  0  0  0  0
  1 27  1  0  0  0  0
  1 31  2  0  0  0  0
  2 19  1  0  0  0  0
  2 23  2  0  0  0  0
  3 15  1  0  0  0  0
  4 22  1  0  0  0  0
  4 28  2  0  0  0  0
  5  6  2  0  0  0  0
  5 11  1  0  0  0  0
  5 14  1  0  0  0  0
  6 26  1  0  0  0  0
  7 16  1  0  0  0  0
  7 22  2  0  0  0  0
  7 31  1  0  0  0  0
  8 14  2  0  0  0  0
  9 11  1  0  0  0  0
  9 13  1  0  0  0  0
  9 25  2  0  0  0  0
 10 16  1  0  0  0  0
 10 18  1  0  0  0  0
 10 28  1  0  0  0  0
 11 19  2  0  0  0  0
 12 13  1  0  0  0  0
 12 24  1  0  0  0  0
 13 30  1  0  0  0  0
 14 23  1  0  0  0  0
 15 24  1  0  0  0  0
 15 30  1  0  0  0  0
 16 20  2  0  0  0  0
 17 22  1  0  0  0  0
 17 27  2  0  0  0  0
 21 24  1  0  0  0  0
 21 29  1  0  0  0  0
 23 27  1  0  0  0  0
 25 32  1  0  0  0  0
 26 32  2  0  0  0  0
 29 30  1  0  0  0  0
M  END
>  <Original_Directory>
4cfu_A_rec_4fkw_62k_lig_tt_docked_1_pocket10

>  <Original_Filename>
4cfu_A_rec_4fkw_62k_lig_tt_docked_1_pocket10_gen_sample_4.sdf

>  <Molecule_ID>
sample_4

>  <logS>
-5.18647

$$$$