/tmp/tmpcn2spkpv
  MOE2022           3D

 31 35  0  0  1  0  0  0  0  0999 V2000
   42.8980   77.3860   86.8630 C   0  0  0  0  0  0  0  0  0  0  0  0
   40.7140   78.0690   85.6520 C   0  0  0  0  0  0  0  0  0  0  0  0
   41.7760   77.1400   86.1280 C   0  0  3  0  0  0  0  0  0  0  0  0
   42.8830   77.5840   91.1260 C   0  0  0  0  0  0  0  0  0  0  0  0
   46.3710   76.2050   87.0460 O   0  0  0  0  0  0  0  0  0  0  0  0
   44.1330   76.8320   86.5930 C   0  0  0  0  0  0  0  0  0  0  0  0
   42.1000   76.2350   92.9720 C   0  0  0  0  0  0  0  0  0  0  0  0
   42.6690   78.3890   87.7690 O   0  0  0  0  0  0  0  0  0  0  0  0
   42.3950   80.9030   86.7460 O   0  0  0  0  0  0  0  0  0  0  0  0
   43.1180   76.5730   92.0740 C   0  0  0  0  0  0  0  0  0  0  0  0
   40.1470   82.3350   87.8630 C   0  0  0  0  0  0  0  0  0  0  0  0
   45.7370   78.3230   87.7160 C   0  0  0  0  0  0  0  0  0  0  0  0
   39.7660   75.9320   86.1600 C   0  0  0  0  0  0  0  0  0  0  0  0
   41.7300   81.1420   90.9280 C   0  0  0  0  0  0  0  0  0  0  0  0
   40.8310   79.4110   86.1070 N   0  0  0  0  0  0  0  0  0  0  0  0
   40.1510   81.6610   86.4930 C   0  0  0  0  0  0  0  0  0  0  0  0
   40.9230   76.9610   92.9840 C   0  0  0  0  0  0  0  0  0  0  0  0
   42.1220   79.9460   91.1360 C   0  0  0  0  0  0  0  0  0  0  0  0
   40.8280   78.1620   92.2770 C   0  0  0  0  0  0  0  0  0  0  0  0
   43.6110   78.3330   88.7190 C   0  0  0  0  0  0  0  0  0  0  0  0
   40.0610   81.3070   89.0040 C   0  0  0  0  0  0  0  0  0  0  0  0
   44.7650   79.0040   88.4110 N   0  0  0  0  0  0  0  0  0  0  0  0
   39.4480   77.4320   86.2330 C   0  0  0  0  0  0  0  0  0  0  0  0
   41.0010   76.3110   84.0710 C   0  0  0  0  0  0  0  0  0  0  0  0
   41.1440   75.8980   85.5390 C   0  0  0  0  0  0  0  0  0  0  0  0
   41.2360   80.6060   86.4560 C   0  0  0  0  0  0  0  0  0  0  0  0
   45.3980   77.1360   87.1110 C   0  0  3  0  0  0  0  0  0  0  0  0
   40.6940   81.9460   90.2460 C   0  0  0  0  0  0  0  0  0  0  0  0
   43.4370   77.5520   89.8420 C   0  0  0  0  0  0  0  0  0  0  0  0
   40.7450   77.8230   84.1430 C   0  0  0  0  0  0  0  0  0  0  0  0
   41.9130   78.5760   91.4990 C   0  0  0  0  0  0  0  0  0  0  0  0
  1  3  1  0  0  0  0
  1  6  2  0  0  0  0
  1  8  1  0  0  0  0
  2  3  1  0  0  0  0
  2 15  1  0  0  0  0
  2 23  1  0  0  0  0
  2 30  1  0  0  0  0
  3 25  1  0  0  0  0
  4 10  1  0  0  0  0
  4 29  1  0  0  0  0
  4 31  2  0  0  0  0
  5 27  1  0  0  0  0
  6 27  1  0  0  0  0
  7 10  2  0  0  0  0
  7 17  1  0  0  0  0
  8 20  1  0  0  0  0
  9 26  2  0  0  0  0
 11 16  1  0  0  0  0
 11 21  1  0  0  0  0
 12 22  1  0  0  0  0
 12 27  1  0  0  0  0
 13 23  1  0  0  0  0
 13 25  1  0  0  0  0
 14 18  1  0  0  0  0
 14 28  1  0  0  0  0
 15 26  1  0  0  0  0
 16 26  1  0  0  0  0
 17 19  2  0  0  0  0
 18 31  1  0  0  0  0
 19 31  1  0  0  0  0
 20 22  2  0  0  0  0
 20 29  1  0  0  0  0
 21 28  1  0  0  0  0
 24 25  1  0  0  0  0
 24 30  1  0  0  0  0
M  END
>  <Original_Directory>
2wxh_A_rec_4xe0_40l_lig_tt_docked_1_pocket10

>  <Original_Filename>
2wxh_A_rec_4xe0_40l_lig_tt_docked_1_pocket10_gen_sample_13.sdf

>  <Molecule_ID>
sample_13

>  <logS>
-5.5858002

$$$$