/tmp/tmpote98jzc
  MOE2022           3D

 27 30  0  0  1  0  0  0  0  0999 V2000
    0.8110   17.3460   15.2520 C   0  0  0  0  0  0  0  0  0  0  0  0
   -0.8780   15.5010   14.8750 C   0  0  0  0  0  0  0  0  0  0  0  0
    2.8840   21.1360   13.8650 C   0  0  0  0  0  0  0  0  0  0  0  0
    4.1350   21.4280   17.0710 O   0  0  0  0  0  0  0  0  0  0  0  0
    1.6720   11.1770   15.2910 C   0  0  3  0  0  0  0  0  0  0  0  0
    1.5060   14.9410   14.8450 C   0  0  0  0  0  0  0  0  0  0  0  0
    2.6090   10.1790   15.7370 O   0  0  0  0  0  0  0  0  0  0  0  0
    3.0590   19.6630   16.2230 O   0  0  0  0  0  0  0  0  0  0  0  0
    0.7670   11.2810   16.5260 C   0  0  3  0  0  0  0  0  0  0  0  0
    1.3930    8.2090   15.2290 O   0  0  0  0  0  0  0  0  0  0  0  0
    1.7550    9.0850   16.2450 C   0  0  0  0  0  0  0  0  0  0  0  0
    1.1650   13.5810   15.0360 C   0  0  0  0  0  0  0  0  0  0  0  0
    0.5230   15.9180   14.9650 C   0  0  3  0  0  0  0  0  0  0  0  0
   -1.1430   14.1790   15.0550 N   0  0  0  0  0  0  0  0  0  0  0  0
    0.5520    9.8080   16.8320 C   0  0  3  0  0  0  0  0  0  0  0  0
    2.1610   12.5610   15.0750 N   0  0  0  0  0  0  0  0  0  0  0  0
   -0.0890   18.0930   15.6420 O   0  0  0  0  0  0  0  0  0  0  0  0
    0.3490    9.5260   18.1980 O   0  0  0  0  0  0  0  0  0  0  0  0
    2.0950   17.8090   15.1740 N   0  0  0  0  0  0  0  0  0  0  0  0
    1.9990   20.0730   14.1450 C   0  0  0  0  0  0  0  0  0  0  0  0
   -0.5100   11.9930   16.0880 C   0  0  0  0  0  0  0  0  0  0  0  0
    3.8880   21.4150   14.7920 C   0  0  0  0  0  0  0  0  0  0  0  0
   -0.1660   13.3080   15.4550 C   0  0  3  0  0  0  0  0  0  0  0  0
    2.4620    8.3560   17.1830 O   0  0  0  0  0  0  0  0  0  0  0  0
   -1.7940   16.3060   14.5880 O   0  0  0  0  0  0  0  0  0  0  0  0
    2.3900   19.1680   15.1150 C   0  0  3  0  0  0  0  0  0  0  0  0
    3.8620   20.7720   16.0510 C   0  0  0  0  0  0  0  0  0  0  0  0
  1 13  1  0  0  0  0
  1 17  2  0  0  0  0
  1 19  1  0  0  0  0
  2 13  1  0  0  0  0
  2 14  1  0  0  0  0
  2 25  2  0  0  0  0
  3 20  1  0  0  0  0
  3 22  2  0  0  0  0
  4 27  2  0  0  0  0
  5  7  1  0  0  0  0
  5  9  1  0  0  0  0
  5 16  1  0  0  0  0
  6 12  2  0  0  0  0
  6 13  1  0  0  0  0
  7 11  1  0  0  0  0
  8 26  1  0  0  0  0
  8 27  1  0  0  0  0
  9 15  1  0  0  0  0
  9 21  1  0  0  0  0
 10 11  1  0  0  0  0
 11 15  1  0  0  0  0
 11 24  1  0  0  0  0
 12 16  1  0  0  0  0
 12 23  1  0  0  0  0
 14 23  1  0  0  0  0
 15 18  1  0  0  0  0
 19 26  1  0  0  0  0
 20 26  1  0  0  0  0
 21 23  1  0  0  0  0
 22 27  1  0  0  0  0
M  END
>  <Original_Directory>
3hvj_A_rec_5p9o_7jf_lig_tt_docked_1_pocket10

>  <Original_Filename>
3hvj_A_rec_5p9o_7jf_lig_tt_docked_1_pocket10_gen_sample_7.sdf

>  <Molecule_ID>
sample_7

>  <logS>
-1.10824

$$$$