/tmp/tmpxhc0gtwb
  MOE2022           3D

 16 17  0  0  1  0  0  0  0  0999 V2000
  -36.8330  -26.7950    1.1800 O   0  0  0  0  0  0  0  0  0  0  0  0
  -37.0680  -23.2040    9.0880 C   0  0  3  0  0  0  0  0  0  0  0  0
  -37.6960  -24.1410    8.0450 C   0  0  0  0  0  0  0  0  0  0  0  0
  -35.6440  -23.6690    9.4040 C   0  0  0  0  0  0  0  0  0  0  0  0
  -35.4230  -24.7460    7.0720 C   0  0  3  0  0  0  0  0  0  0  0  0
  -34.7740  -23.8770    8.1710 C   0  0  0  0  0  0  0  0  0  0  0  0
  -35.0110  -24.1930    3.4510 O   0  0  0  0  0  0  0  0  0  0  0  0
  -35.2970  -27.1570    2.7240 O   0  0  0  0  0  0  0  0  0  0  0  0
  -36.7170  -25.2200    4.5000 C   0  0  3  0  0  0  0  0  0  0  0  0
  -37.8710  -23.3270   10.2680 O   0  0  0  0  0  0  0  0  0  0  0  0
  -36.4100  -26.7240    2.3790 C   0  0  0  0  0  0  0  0  0  0  0  0
  -34.5910  -24.4910    5.7950 C   0  0  0  0  0  0  0  0  0  0  0  0
  -37.3300  -26.0040    3.3550 C   0  0  0  0  0  0  0  0  0  0  0  0
  -37.4390  -25.2790    5.8300 C   0  0  0  0  0  0  0  0  0  0  0  0
  -35.1940  -25.1110    4.5280 C   0  0  3  0  0  0  0  0  0  0  0  0
  -36.8400  -24.1890    6.7630 C   0  0  3  0  0  0  0  0  0  0  0  0
  1 11  2  0  0  0  0
  2  3  1  0  0  0  0
  2  4  1  0  0  0  0
  2 10  1  0  0  0  0
  3 16  1  0  0  0  0
  4  6  1  0  0  0  0
  5  6  1  0  0  0  0
  5 12  1  0  0  0  0
  5 16  1  0  0  0  0
  7 15  1  0  0  0  0
  8 11  1  0  0  0  0
  9 13  1  0  0  0  0
  9 14  1  0  0  0  0
  9 15  1  0  0  0  0
 11 13  1  0  0  0  0
 12 15  1  0  0  0  0
 14 16  1  0  0  0  0
M  END
>  <Original_Directory>
1amr_A_rec_1aia_pmp_lig_tt_docked_0_pocket10

>  <Original_Filename>
1amr_A_rec_1aia_pmp_lig_tt_docked_0_pocket10_gen_sample_3.sdf

>  <Molecule_ID>
sample_3

>  <logS>
-0.59873998

$$$$