/tmp/tmp9fwn869u
  MOE2022           3D

 16 17  0  0  1  0  0  0  0  0999 V2000
  -35.0090  -24.8360    5.5760 C   0  0  0  0  0  0  0  0  0  0  0  0
  -36.9760  -21.5660    9.0500 O   0  0  0  0  0  0  0  0  0  0  0  0
  -36.2970  -23.1510   10.4780 O   0  0  0  0  0  0  0  0  0  0  0  0
  -38.5810  -25.2980    6.9100 C   0  0  0  0  0  0  0  0  0  0  0  0
  -37.5060  -26.0740    4.7800 C   0  0  0  0  0  0  0  0  0  0  0  0
  -35.2960  -25.2470    4.1300 C   0  0  0  0  0  0  0  0  0  0  0  0
  -36.2870  -24.4740    6.3350 C   0  0  2  0  0  0  0  0  0  0  0  0
  -36.8930  -23.2000    5.7480 C   0  0  0  0  0  0  0  0  0  0  0  0
  -35.0500  -23.1980    7.9800 O   0  0  0  0  0  0  0  0  0  0  0  0
  -38.5220  -22.7550   10.2030 O   0  0  0  0  0  0  0  0  0  0  0  0
  -36.1750  -26.5020    4.1540 C   0  0  0  0  0  0  0  0  0  0  0  0
  -35.9900  -24.2610    7.8280 C   0  0  3  0  0  0  0  0  0  0  0  0
  -37.3130  -22.7960    9.5900 C   0  0  0  0  0  0  0  0  0  0  0  0
  -38.3650  -24.6310    8.2510 C   0  0  0  0  0  0  0  0  0  0  0  0
  -37.2590  -25.6510    6.2300 C   0  0  3  0  0  0  0  0  0  0  0  0
  -37.2750  -23.8970    8.5200 C   0  0  3  0  0  0  0  0  0  0  0  0
  1  6  1  0  0  0  0
  1  7  1  0  0  0  0
  2 13  1  0  0  0  0
  3 13  1  0  0  0  0
  4 14  1  0  0  0  0
  4 15  1  0  0  0  0
  5 11  1  0  0  0  0
  5 15  1  0  0  0  0
  6 11  1  0  0  0  0
  7  8  1  0  0  0  0
  7 12  1  0  0  0  0
  7 15  1  0  0  0  0
  9 12  1  0  0  0  0
 10 13  1  0  0  0  0
 12 16  1  0  0  0  0
 13 16  1  0  0  0  0
 14 16  1  0  0  0  0
M  END
>  <Original_Directory>
1amr_A_rec_1aia_pmp_lig_tt_docked_0_pocket10

>  <Original_Filename>
1amr_A_rec_1aia_pmp_lig_tt_docked_0_pocket10_gen_sample_11.sdf

>  <Molecule_ID>
sample_11

>  <logS>
-2.08516

$$$$