/tmp/tmp01c3__pi
  MOE2022           3D

 39 45  0  0  0  0  0  0  0  0999 V2000
    3.2460   -6.7860    9.0780 C   0  0  0  0  0  0  0  0  0  0  0  0
    6.8160  -10.9790    9.1560 C   0  0  0  0  0  0  0  0  0  0  0  0
    9.1600  -12.9820    4.0110 C   0  0  0  0  0  0  0  0  0  0  0  0
   -0.0400   -8.0100    5.6990 C   0  0  0  0  0  0  0  0  0  0  0  0
    6.0720  -11.0450    4.4880 C   0  0  0  0  0  0  0  0  0  0  0  0
    2.3480   -8.5230    6.2150 C   0  0  0  0  0  0  0  0  0  0  0  0
    2.1150   -4.6150    7.7370 C   0  0  0  0  0  0  0  0  0  0  0  0
    3.1430   -6.8160    7.6840 C   0  0  0  0  0  0  0  0  0  0  0  0
   10.7740  -14.8600    4.3780 C   0  0  0  0  0  0  0  0  0  0  0  0
    8.1870  -10.7480    9.1470 C   0  0  0  0  0  0  0  0  0  0  0  0
    6.7530  -10.5980    6.7640 C   0  0  0  0  0  0  0  0  0  0  0  0
   11.1610  -15.3460    3.1570 C   0  0  0  0  0  0  0  0  0  0  0  0
    6.0720  -10.1850    5.6030 C   0  0  0  0  0  0  0  0  0  0  0  0
    5.2000   -8.3830    3.1770 C   0  0  0  0  0  0  0  0  0  0  0  0
    5.2490  -10.8360    3.3820 C   0  0  0  0  0  0  0  0  0  0  0  0
   -0.3510   -5.7980    4.8330 C   0  0  0  0  0  0  0  0  0  0  0  0
    8.8250  -11.1200    5.5810 C   0  0  0  0  0  0  0  0  0  0  0  0
    0.8750   -5.4120    5.2200 N   0  0  0  0  0  0  0  0  0  0  0  0
    2.3240   -5.8380    7.0840 C   0  0  0  0  0  0  0  0  0  0  0  0
    2.1100   -4.6480    9.1330 C   0  0  0  0  0  0  0  0  0  0  0  0
    4.7780   -8.4190    6.7110 C   0  0  0  0  0  0  0  0  0  0  0  0
    1.8160   -6.2490   11.0670 C   0  0  0  0  0  0  0  0  0  0  0  0
    9.2020  -13.0380    2.6180 C   0  0  0  0  0  0  0  0  0  0  0  0
    3.4570   -7.9820    6.8920 C   0  0  0  0  0  0  0  0  0  0  0  0
    5.5840   -8.0630    4.4670 C   0  0  0  0  0  0  0  0  0  0  0  0
   10.1480  -13.5960    1.7970 C   0  0  0  0  0  0  0  0  0  0  0  0
    1.5260   -6.2770    6.0280 C   0  0  0  0  0  0  0  0  0  0  0  0
    6.9270  -12.1610    4.4740 C   0  0  0  0  0  0  0  0  0  0  0  0
    8.1580  -10.7350    6.7420 C   0  0  0  0  0  0  0  0  0  0  0  0
    6.0820  -10.9120    7.9630 C   0  0  0  0  0  0  0  0  0  0  0  0
    4.9480   -9.6570    2.7460 C   0  0  0  0  0  0  0  0  0  0  0  0
    8.3070  -12.0420    4.6760 C   0  0  0  0  0  0  0  0  0  0  0  0
   10.0280  -13.7700    4.7470 C   0  0  0  0  0  0  0  0  0  0  0  0
    5.4630   -8.9000    5.5760 C   0  0  0  0  0  0  0  0  0  0  0  0
   11.0780  -14.5980    1.9860 C   0  0  0  0  0  0  0  0  0  0  0  0
    2.4450   -5.8540    9.7580 C   0  0  0  0  0  0  0  0  0  0  0  0
   -0.8420   -7.0720    5.0460 C   0  0  0  0  0  0  0  0  0  0  0  0
    1.2870   -7.6560    5.9380 C   0  0  0  0  0  0  0  0  0  0  0  0
    8.8560  -10.5540    7.9390 C   0  0  0  0  0  0  0  0  0  0  0  0
  1  8  2  0  0  0  0
  1 36  1  0  0  0  0
  2 10  1  0  0  0  0
  2 30  2  0  0  0  0
  3 23  2  0  0  0  0
  3 32  1  0  0  0  0
  3 33  1  0  0  0  0
  4 37  1  0  0  0  0
  4 38  2  0  0  0  0
  5 13  1  0  0  0  0
  5 15  1  0  0  0  0
  5 28  2  0  0  0  0
  6 24  2  0  0  0  0
  6 38  1  0  0  0  0
  7 19  2  0  0  0  0
  7 20  1  0  0  0  0
  8 19  1  0  0  0  0
  8 24  1  0  0  0  0
  9 12  2  0  0  0  0
  9 33  1  0  0  0  0
 10 39  2  0  0  0  0
 11 13  1  0  0  0  0
 11 29  2  0  0  0  0
 11 30  1  0  0  0  0
 12 35  1  0  0  0  0
 13 34  2  0  0  0  0
 14 25  2  0  0  0  0
 14 31  1  0  0  0  0
 15 31  2  0  0  0  0
 16 18  1  0  0  0  0
 16 37  2  0  0  0  0
 17 29  1  0  0  0  0
 17 32  2  0  0  0  0
 18 27  2  0  0  0  0
 19 27  1  0  0  0  0
 20 36  2  0  0  0  0
 21 24  1  0  0  0  0
 21 34  1  0  0  0  0
 22 36  1  0  0  0  0
 23 26  1  0  0  0  0
 25 34  1  0  0  0  0
 26 35  2  0  0  0  0
 27 38  1  0  0  0  0
 28 32  1  0  0  0  0
 29 39  1  0  0  0  0
M  END
>  <Original_Directory>
5mqv_B_rec_5mqv_d5q_lig_tt_min_0_pocket10

>  <Original_Filename>
5mqv_B_rec_5mqv_d5q_lig_tt_min_0_pocket10_gen_sample_6.sdf

>  <Molecule_ID>
sample_6

>  <logS>
-11.15156

$$$$