/tmp/tmp2fpprtru
  MOE2022           3D

 33 37  0  0  1  0  0  0  0  0999 V2000
  -16.3090    8.4080   -4.3450 C   0  0  0  0  0  0  0  0  0  0  0  0
  -18.0690    2.5280   -6.2720 C   0  0  0  0  0  0  0  0  0  0  0  0
  -17.4960    9.6290    0.2630 C   0  0  0  0  0  0  0  0  0  0  0  0
  -13.2540    1.8650   -5.9220 C   0  0  0  0  0  0  0  0  0  0  0  0
  -11.8830    1.2310   -6.1640 C   0  0  3  0  0  0  0  0  0  0  0  0
  -16.4480    5.8170   -5.3890 C   0  0  0  0  0  0  0  0  0  0  0  0
  -16.2620    6.4280    2.3660 O   0  0  0  0  0  0  0  0  0  0  0  0
  -17.4690    9.1720   -1.0080 N   0  0  0  0  0  0  0  0  0  0  0  0
  -16.1160    2.8430   -7.6410 C   0  0  0  0  0  0  0  0  0  0  0  0
  -11.8070    3.4700   -7.0820 C   0  0  0  0  0  0  0  0  0  0  0  0
  -16.4720    9.0100    0.9870 C   0  0  3  0  0  0  0  0  0  0  0  0
  -15.2610    7.5370    3.9840 O   0  0  0  0  0  0  0  0  0  0  0  0
  -16.2730    7.3930   -2.0650 C   0  0  0  0  0  0  0  0  0  0  0  0
  -17.7140    3.6360   -5.5030 C   0  0  0  0  0  0  0  0  0  0  0  0
  -18.4130   10.3210    0.7930 O   0  0  0  0  0  0  0  0  0  0  0  0
   -9.5540    1.9880   -6.1560 C   0  0  0  0  0  0  0  0  0  0  0  0
  -16.7770    9.8040    3.3060 O   0  0  0  0  0  0  0  0  0  0  0  0
  -14.1990    4.1890   -6.6440 C   0  0  0  0  0  0  0  0  0  0  0  0
  -16.3930    8.2150   -5.7170 C   0  0  0  0  0  0  0  0  0  0  0  0
  -11.0890    0.3250   -5.2440 C   0  0  0  0  0  0  0  0  0  0  0  0
  -16.2650    7.3000   -3.4820 C   0  0  0  0  0  0  0  0  0  0  0  0
  -16.6270    4.4170   -5.8970 C   0  0  0  0  0  0  0  0  0  0  0  0
  -15.9980    7.5000    2.9580 C   0  0  0  0  0  0  0  0  0  0  0  0
  -13.2650    3.0210   -6.9480 C   0  0  0  0  0  0  0  0  0  0  0  0
   -9.6620    0.8830   -5.0830 C   0  0  0  0  0  0  0  0  0  0  0  0
  -15.6550    3.8100   -6.7430 C   0  0  0  0  0  0  0  0  0  0  0  0
  -16.3180    8.4260   -1.1130 C   0  0  0  0  0  0  0  0  0  0  0  0
  -16.4780    6.9250   -6.2480 C   0  0  0  0  0  0  0  0  0  0  0  0
  -16.6070    8.7700    2.4400 C   0  0  3  0  0  0  0  0  0  0  0  0
  -10.9790    2.4370   -6.3620 C   0  0  3  0  0  0  0  0  0  0  0  0
  -16.2540    6.0200   -4.0300 C   0  0  0  0  0  0  0  0  0  0  0  0
  -17.2950    2.1480   -7.3530 C   0  0  0  0  0  0  0  0  0  0  0  0
  -15.7370    8.3180    0.0990 N   0  0  0  0  0  0  0  0  0  0  0  0
  1 19  2  0  0  0  0
  1 21  1  0  0  0  0
  2 14  2  0  0  0  0
  2 32  1  0  0  0  0
  3  8  1  0  0  0  0
  3 11  1  0  0  0  0
  3 15  2  0  0  0  0
  4  5  1  0  0  0  0
  4 24  1  0  0  0  0
  5 20  1  0  0  0  0
  5 30  1  0  0  0  0
  6 22  1  0  0  0  0
  6 28  2  0  0  0  0
  6 31  1  0  0  0  0
  7 23  2  0  0  0  0
  8 27  2  0  0  0  0
  9 26  1  0  0  0  0
  9 32  2  0  0  0  0
 10 24  1  0  0  0  0
 10 30  1  0  0  0  0
 11 29  1  0  0  0  0
 11 33  1  0  0  0  0
 12 23  1  0  0  0  0
 13 21  1  0  0  0  0
 13 27  1  0  0  0  0
 14 22  1  0  0  0  0
 16 25  1  0  0  0  0
 16 30  1  0  0  0  0
 17 29  1  0  0  0  0
 18 24  1  0  0  0  0
 18 26  1  0  0  0  0
 19 28  1  0  0  0  0
 20 25  1  0  0  0  0
 21 31  2  0  0  0  0
 22 26  2  0  0  0  0
 23 29  1  0  0  0  0
 27 33  1  0  0  0  0
M  END
>  <Original_Directory>
3w0g_A_rec_2zfx_yr3_lig_tt_docked_1_pocket10

>  <Original_Filename>
3w0g_A_rec_2zfx_yr3_lig_tt_docked_1_pocket10_gen_sample_3.sdf

>  <Molecule_ID>
sample_3

>  <logS>
-8.8346796

$$$$