/tmp/tmpneary9gp
  MOE2022           3D

 33 37  0  0  1  0  0  0  0  0999 V2000
  -14.1070    2.3020   -5.5300 N   0  0  0  0  0  0  0  0  0  0  0  0
  -17.7370   10.2500    0.3050 C   0  0  0  0  0  0  0  0  0  0  0  0
  -14.8630    9.3780    3.3320 C   0  0  0  0  0  0  0  0  0  0  0  0
  -16.6290    8.6180    1.6230 C   0  0  0  0  0  0  0  0  0  0  0  0
  -16.9180    9.1020    0.3180 C   0  0  0  0  0  0  0  0  0  0  0  0
  -10.4440   -0.2610   -4.9190 C   0  0  0  0  0  0  0  0  0  0  0  0
  -16.8750    5.2050   -4.0910 C   0  0  0  0  0  0  0  0  0  0  0  0
  -15.9580    5.5500   -5.0990 C   0  0  0  0  0  0  0  0  0  0  0  0
  -16.0720    9.6120    2.4570 C   0  0  0  0  0  0  0  0  0  0  0  0
  -14.9010    3.2620   -5.0020 C   0  0  0  0  0  0  0  0  0  0  0  0
  -16.6990    7.3590   -2.9100 C   0  0  0  0  0  0  0  0  0  0  0  0
   -9.6490    0.5550   -3.9070 C   0  0  0  0  0  0  0  0  0  0  0  0
   -9.0050    1.6270   -4.8040 C   0  0  3  0  0  0  0  0  0  0  0  0
  -18.2170    7.0940    2.5220 O   0  0  0  0  0  0  0  0  0  0  0  0
   -9.9750    0.3230   -6.2700 C   0  0  3  0  0  0  0  0  0  0  0  0
  -16.7280   10.8590    2.4400 C   0  0  0  0  0  0  0  0  0  0  0  0
  -12.1510    1.6050   -6.8440 C   0  0  0  0  0  0  0  0  0  0  0  0
  -10.1470    2.5160   -5.3460 C   0  0  0  0  0  0  0  0  0  0  0  0
  -16.0100    7.6740   -1.6600 C   0  0  0  0  0  0  0  0  0  0  0  0
  -16.2410    8.0570   -5.2370 C   0  0  0  0  0  0  0  0  0  0  0  0
  -16.0630    6.7780   -5.7510 C   0  0  0  0  0  0  0  0  0  0  0  0
  -13.9460    4.9140   -6.4580 C   0  0  0  0  0  0  0  0  0  0  0  0
  -17.2500    6.0810   -3.0670 C   0  0  0  0  0  0  0  0  0  0  0  0
  -13.1620    2.6430   -6.4610 C   0  0  0  0  0  0  0  0  0  0  0  0
  -16.1840    8.6620   -0.8340 C   0  0  0  0  0  0  0  0  0  0  0  0
  -17.7010   11.0760    1.4440 C   0  0  0  0  0  0  0  0  0  0  0  0
   -8.5950    0.8080   -5.9510 N   0  0  0  0  0  0  0  0  0  0  0  0
  -17.0190    7.2570    2.0680 C   0  0  0  0  0  0  0  0  0  0  0  0
  -16.2400    6.2970    2.0160 O   0  0  0  0  0  0  0  0  0  0  0  0
  -13.1310    3.9220   -7.0220 C   0  0  0  0  0  0  0  0  0  0  0  0
  -16.7060    8.3240   -3.9340 C   0  0  0  0  0  0  0  0  0  0  0  0
  -14.9310    4.5690   -5.5210 C   0  0  0  0  0  0  0  0  0  0  0  0
  -10.6810    1.6620   -6.5010 C   0  0  3  0  0  0  0  0  0  0  0  0
  1 10  1  0  0  0  0
  1 24  2  0  0  0  0
  2  5  2  0  0  0  0
  2 26  1  0  0  0  0
  3  9  1  0  0  0  0
  4  5  1  0  0  0  0
  4  9  2  0  0  0  0
  4 28  1  0  0  0  0
  5 25  1  0  0  0  0
  6 12  1  0  0  0  0
  6 15  1  0  0  0  0
  7  8  2  0  0  0  0
  7 23  1  0  0  0  0
  8 21  1  0  0  0  0
  8 32  1  0  0  0  0
  9 16  1  0  0  0  0
 10 32  2  0  0  0  0
 11 19  1  0  0  0  0
 11 23  1  0  0  0  0
 11 31  2  0  0  0  0
 12 13  1  0  0  0  0
 13 18  1  0  0  0  0
 13 27  1  0  0  0  0
 14 28  1  0  0  0  0
 15 27  1  0  0  0  0
 15 33  1  0  0  0  0
 16 26  2  0  0  0  0
 17 24  1  0  0  0  0
 17 33  1  0  0  0  0
 18 33  1  0  0  0  0
 19 25  1  0  0  0  0
 20 21  2  0  0  0  0
 20 31  1  0  0  0  0
 22 30  2  0  0  0  0
 22 32  1  0  0  0  0
 24 30  1  0  0  0  0
 28 29  2  0  0  0  0
M  END
>  <Original_Directory>
3w0g_A_rec_2zfx_yr3_lig_tt_docked_1_pocket10

>  <Original_Filename>
3w0g_A_rec_2zfx_yr3_lig_tt_docked_1_pocket10_gen_sample_9.sdf

>  <Molecule_ID>
sample_9

>  <logS>
-5.6968699

$$$$