/tmp/tmpsgc4be02
  MOE2022           3D

 29 34  0  0  1  0  0  0  0  0999 V2000
    0.8460    2.0870   37.4500 C   0  0  0  0  0  0  0  0  0  0  0  0
    4.1590    2.1590   38.0860 O   0  0  0  0  0  0  0  0  0  0  0  0
   -2.2220    6.6440   36.1830 O   0  0  0  0  0  0  0  0  0  0  0  0
    1.9300    0.4910   39.0100 O   0  0  0  0  0  0  0  0  0  0  0  0
    1.9020    1.5820   38.1950 C   0  0  3  0  0  0  0  0  0  0  0  0
    1.6460    5.2150   33.1680 C   0  0  3  0  0  0  0  0  0  0  0  0
   -0.1070    1.4230   36.6920 C   0  0  0  0  0  0  0  0  0  0  0  0
    1.3000    7.6640   32.0320 C   0  0  3  0  0  0  0  0  0  0  0  0
    1.4780    6.9800   29.7540 C   0  0  0  0  0  0  0  0  0  0  0  0
    0.4940    7.4680   33.2280 N   0  0  0  0  0  0  0  0  0  0  0  0
    0.9330    6.2830   33.9770 C   0  0  3  0  0  0  0  0  0  0  0  0
   -1.0570    6.5610   36.8560 C   0  0  0  0  0  0  0  0  0  0  0  0
    1.1360    3.4390   37.1920 C   0  0  0  0  0  0  0  0  0  0  0  0
    1.2570    8.9170   31.1950 C   0  0  3  0  0  0  0  0  0  0  0  0
    2.9450    2.4580   37.9550 C   0  0  0  0  0  0  0  0  0  0  0  0
   -0.3130    4.2050   34.2020 C   0  0  3  0  0  0  0  0  0  0  0  0
   -0.6380    7.8370   36.9400 O   0  0  0  0  0  0  0  0  0  0  0  0
   -1.3160    6.0530   38.1140 O   0  0  0  0  0  0  0  0  0  0  0  0
   -0.7410    2.1300   35.6690 C   0  0  0  0  0  0  0  0  0  0  0  0
    0.0030    5.6620   36.1540 C   0  0  3  0  0  0  0  0  0  0  0  0
    2.4930    3.6190   37.3430 O   0  0  0  0  0  0  0  0  0  0  0  0
   -0.3100    5.6490   34.6360 C   0  0  3  0  0  0  0  0  0  0  0  0
    0.9220    3.9000   33.4020 C   0  0  0  0  0  0  0  0  0  0  0  0
    0.9550    6.4990   31.1030 C   0  0  3  0  0  0  0  0  0  0  0  0
    2.3910    9.8770   31.4930 C   0  0  0  0  0  0  0  0  0  0  0  0
    1.2440    8.4830   29.7350 C   0  0  0  0  0  0  0  0  0  0  0  0
    1.8380    5.3850   31.6710 C   0  0  0  0  0  0  0  0  0  0  0  0
    0.1850    4.1970   36.4870 C   0  0  0  0  0  0  0  0  0  0  0  0
   -0.3610    3.4500   35.4570 C   0  0  0  0  0  0  0  0  0  0  0  0
  1  5  1  0  0  0  0
  1  7  2  0  0  0  0
  1 13  1  0  0  0  0
  2 15  2  0  0  0  0
  3 12  1  0  0  0  0
  4  5  1  0  0  0  0
  5 15  1  0  0  0  0
  6 11  1  0  0  0  0
  6 23  1  0  0  0  0
  6 27  1  0  0  0  0
  7 19  1  0  0  0  0
  8 10  1  0  0  0  0
  8 14  1  0  0  0  0
  8 24  1  0  0  0  0
  9 24  1  0  0  0  0
  9 26  1  0  0  0  0
 10 11  1  0  0  0  0
 11 22  1  0  0  0  0
 12 17  1  0  0  0  0
 12 18  1  0  0  0  0
 12 20  1  0  0  0  0
 13 21  1  0  0  0  0
 13 28  2  0  0  0  0
 14 25  1  0  0  0  0
 14 26  1  0  0  0  0
 15 21  1  0  0  0  0
 16 22  1  0  0  0  0
 16 23  1  0  0  0  0
 16 29  1  0  0  0  0
 19 29  2  0  0  0  0
 20 22  1  0  0  0  0
 20 28  1  0  0  0  0
 24 27  1  0  0  0  0
 28 29  1  0  0  0  0
M  END
>  <Original_Directory>
2x7d_A_rec_2fky_n2t_lig_tt_min_0_pocket10

>  <Original_Filename>
2x7d_A_rec_2fky_n2t_lig_tt_min_0_pocket10_gen_sample_8.sdf

>  <Molecule_ID>
sample_8

>  <logS>
-3.18803

$$$$