/tmp/tmpfmcsql4q
  MOE2022           3D

 31 36  0  0  1  0  0  0  0  0999 V2000
   10.9690    6.6240   15.4710 C   0  0  0  0  0  0  0  0  0  0  0  0
   12.2590    8.7500   15.5520 C   0  0  0  0  0  0  0  0  0  0  0  0
   -2.8310    7.4260   19.8410 C   0  0  3  0  0  0  0  0  0  0  0  0
    5.2490    7.6210   18.2430 C   0  0  3  0  0  0  0  0  0  0  0  0
    8.2990    5.5790   18.1980 O   0  0  0  0  0  0  0  0  0  0  0  0
    3.9640    6.9410   18.7520 C   0  0  0  0  0  0  0  0  0  0  0  0
   -0.4720    7.0130   19.4390 C   0  0  3  0  0  0  0  0  0  0  0  0
    5.8270    8.5370   19.3390 C   0  0  3  0  0  0  0  0  0  0  0  0
    0.2140    9.2390   20.7570 C   0  0  0  0  0  0  0  0  0  0  0  0
   11.2720    9.5650   16.1230 C   0  0  0  0  0  0  0  0  0  0  0  0
    0.2280    7.5400   18.1530 C   0  0  0  0  0  0  0  0  0  0  0  0
    8.3490    7.9010   17.8060 C   0  0  3  0  0  0  0  0  0  0  0  0
    4.9930    8.9810   20.5390 C   0  0  0  0  0  0  0  0  0  0  0  0
   -2.1010    8.7590   19.8540 C   0  0  0  0  0  0  0  0  0  0  0  0
    2.8280    7.9660   18.6320 C   0  0  3  0  0  0  0  0  0  0  0  0
   -1.3010    7.4890   21.6840 C   0  0  0  0  0  0  0  0  0  0  0  0
   -1.8860    6.5740   18.9900 C   0  0  0  0  0  0  0  0  0  0  0  0
   -0.8060    8.1850   20.4000 C   0  0  1  0  0  0  0  0  0  0  0  0
    1.6870    7.1580   18.0580 C   0  0  0  0  0  0  0  0  0  0  0  0
    6.8350    9.4720   19.0100 C   0  0  0  0  0  0  0  0  0  0  0  0
    9.3750    8.0160   16.7760 C   0  0  0  0  0  0  0  0  0  0  0  0
    3.7270    9.7150   20.0590 C   0  0  0  0  0  0  0  0  0  0  0  0
   12.0670    7.4350   15.2050 C   0  0  0  0  0  0  0  0  0  0  0  0
    1.4020    9.5820   19.8860 C   0  0  0  0  0  0  0  0  0  0  0  0
   -2.6650    6.9530   21.2850 C   0  0  0  0  0  0  0  0  0  0  0  0
    9.7170    6.8780   15.9810 C   0  0  0  0  0  0  0  0  0  0  0  0
    8.1240    8.9730   18.6850 C   0  0  0  0  0  0  0  0  0  0  0  0
    7.6570    6.5930   17.9630 C   0  0  0  0  0  0  0  0  0  0  0  0
    6.1550    6.4970   17.7370 C   0  0  0  0  0  0  0  0  0  0  0  0
    2.6170    8.6470   20.0020 C   0  0  3  0  0  0  0  0  0  0  0  0
   10.0100    9.2460   16.5620 C   0  0  0  0  0  0  0  0  0  0  0  0
  1 23  2  0  0  0  0
  1 26  1  0  0  0  0
  2 10  2  0  0  0  0
  2 23  1  0  0  0  0
  3 14  1  0  0  0  0
  3 17  1  0  0  0  0
  3 25  1  0  0  0  0
  4  6  1  0  0  0  0
  4  8  1  0  0  0  0
  4 29  1  0  0  0  0
  5 28  2  0  0  0  0
  6 15  1  0  0  0  0
  7 11  1  0  0  0  0
  7 17  1  0  0  0  0
  7 18  1  0  0  0  0
  8 13  1  0  0  0  0
  8 20  1  0  0  0  0
  9 18  1  0  0  0  0
  9 24  1  0  0  0  0
 10 31  1  0  0  0  0
 11 19  1  0  0  0  0
 12 21  1  0  0  0  0
 12 27  1  0  0  0  0
 12 28  1  0  0  0  0
 13 22  1  0  0  0  0
 14 18  1  0  0  0  0
 15 19  1  0  0  0  0
 15 30  1  0  0  0  0
 16 18  1  0  0  0  0
 16 25  1  0  0  0  0
 20 27  1  0  0  0  0
 21 26  1  0  0  0  0
 21 31  2  0  0  0  0
 22 30  1  0  0  0  0
 24 30  1  0  0  0  0
 28 29  1  0  0  0  0
M  END
>  <Original_Directory>
4fta_A_rec_2hxq_373_lig_tt_docked_4_pocket10

>  <Original_Filename>
4fta_A_rec_2hxq_373_lig_tt_docked_4_pocket10_gen_sample_6.sdf

>  <Molecule_ID>
sample_6

>  <logS>
-10.84973

$$$$