/tmp/tmphjn3d6q9
  MOE2022           3D

 31 36  0  0  1  0  0  0  0  0999 V2000
   -1.5610    9.1630   21.8210 C   0  0  0  0  0  0  0  0  0  0  0  0
    8.9820    7.2400   17.1470 N   0  0  0  0  0  0  0  0  0  0  0  0
   -0.1160    7.9360   19.6460 C   0  0  0  0  0  0  0  0  0  0  0  0
    0.4860    8.8740   20.5010 C   0  0  0  0  0  0  0  0  0  0  0  0
    4.0140   10.2130   20.6020 C   0  0  0  0  0  0  0  0  0  0  0  0
    3.6080    6.4170   19.1690 N   0  0  0  0  0  0  0  0  0  0  0  0
    7.6740    7.0100   17.3500 C   0  0  0  0  0  0  0  0  0  0  0  0
    7.1990    5.9730   16.6440 N   0  0  0  0  0  0  0  0  0  0  0  0
    4.7080    8.3610   19.1790 C   0  0  0  0  0  0  0  0  0  0  0  0
   -0.2390    9.4690   21.5370 C   0  0  0  0  0  0  0  0  0  0  0  0
    0.0090    8.1680   18.1760 C   0  0  0  0  0  0  0  0  0  0  0  0
   -2.3180    8.1560   21.2610 C   0  0  0  0  0  0  0  0  0  0  0  0
    4.9210    9.5740   19.8050 C   0  0  0  0  0  0  0  0  0  0  0  0
    9.3290    9.5270   17.7160 C   0  0  0  0  0  0  0  0  0  0  0  0
    5.5590    7.4060   18.5410 C   0  0  3  0  0  0  0  0  0  0  0  0
    2.3090    8.4810   19.0670 C   0  0  0  0  0  0  0  0  0  0  0  0
   -3.5940    8.4010   20.9020 O   0  0  0  0  0  0  0  0  0  0  0  0
    3.4670    7.7570   19.2070 C   0  0  0  0  0  0  0  0  0  0  0  0
    7.5570    8.5380   19.1320 C   0  0  0  0  0  0  0  0  0  0  0  0
    2.7080    9.9350   20.9160 C   0  0  0  0  0  0  0  0  0  0  0  0
    4.1420    6.0390   16.9210 C   0  0  0  0  0  0  0  0  0  0  0  0
    9.5140    8.4590   16.8850 C   0  0  0  0  0  0  0  0  0  0  0  0
    1.8330    9.1400   20.2010 C   0  0  0  0  0  0  0  0  0  0  0  0
    6.1920    5.9910   15.5930 C   0  0  0  0  0  0  0  0  0  0  0  0
    5.0210    5.1390   16.0540 C   0  0  0  0  0  0  0  0  0  0  0  0
    8.3460    9.5700   18.7020 C   0  0  0  0  0  0  0  0  0  0  0  0
   -0.6610    6.7740   20.1870 C   0  0  0  0  0  0  0  0  0  0  0  0
    6.9390    7.5910   18.3710 N   0  0  0  0  0  0  0  0  0  0  0  0
    1.4600    8.4360   17.8310 C   0  0  0  0  0  0  0  0  0  0  0  0
    4.7470    6.1310   18.3320 C   0  0  3  0  0  0  0  0  0  0  0  0
   -1.8010    6.8980   20.9920 C   0  0  0  0  0  0  0  0  0  0  0  0
  1 10  1  0  0  0  0
  1 12  2  0  0  0  0
  2  7  2  0  0  0  0
  2 22  1  0  0  0  0
  3  4  2  0  0  0  0
  3 11  1  0  0  0  0
  3 27  1  0  0  0  0
  4 10  1  0  0  0  0
  4 23  1  0  0  0  0
  5 13  2  0  0  0  0
  5 20  1  0  0  0  0
  6 18  1  0  0  0  0
  6 30  1  0  0  0  0
  7  8  1  0  0  0  0
  7 28  1  0  0  0  0
  8 24  1  0  0  0  0
  9 13  1  0  0  0  0
  9 15  1  0  0  0  0
  9 18  2  0  0  0  0
 11 29  1  0  0  0  0
 12 17  1  0  0  0  0
 12 31  1  0  0  0  0
 14 22  1  0  0  0  0
 14 26  2  0  0  0  0
 15 28  1  0  0  0  0
 15 30  1  0  0  0  0
 16 18  1  0  0  0  0
 16 23  2  0  0  0  0
 16 29  1  0  0  0  0
 19 26  1  0  0  0  0
 19 28  1  0  0  0  0
 20 23  1  0  0  0  0
 21 25  1  0  0  0  0
 21 30  1  0  0  0  0
 24 25  1  0  0  0  0
 27 31  2  0  0  0  0
M  END
>  <Original_Directory>
4fta_A_rec_2hxq_373_lig_tt_docked_4_pocket10

>  <Original_Filename>
4fta_A_rec_2hxq_373_lig_tt_docked_4_pocket10_gen_sample_12.sdf

>  <Molecule_ID>
sample_12

>  <logS>
-4.1395302

$$$$