/tmp/tmpvpy6ay3i
  MOE2022           3D

 31 36  0  0  1  0  0  0  0  0999 V2000
    4.9490    8.7700   19.3760 C   0  0  3  0  0  0  0  0  0  0  0  0
    2.5050    7.5550   19.3110 C   0  0  3  0  0  0  0  0  0  0  0  0
   10.1390    7.7100   15.8130 C   0  0  0  0  0  0  0  0  0  0  0  0
    1.0990    7.5500   19.0690 C   0  0  0  0  0  0  0  0  0  0  0  0
   -0.5810    7.1520   20.7770 C   0  0  2  0  0  0  0  0  0  0  0  0
   -2.7540    5.9340   22.0330 C   0  0  0  0  0  0  0  0  0  0  0  0
    0.4850    7.9960   20.2230 N   0  0  0  0  0  0  0  0  0  0  0  0
    8.8040    5.9070   16.8600 C   0  0  0  0  0  0  0  0  0  0  0  0
   -2.1330    8.8540   21.7910 C   0  0  0  0  0  0  0  0  0  0  0  0
   -1.8050    6.8630   19.8900 C   0  0  0  0  0  0  0  0  0  0  0  0
   -3.3990    8.1900   21.2470 C   0  0  0  0  0  0  0  0  0  0  0  0
   -1.0630    7.7880   22.1060 C   0  0  0  0  0  0  0  0  0  0  0  0
   -3.0810    6.7630   20.7660 C   0  0  0  0  0  0  0  0  0  0  0  0
    0.0330    5.9190   21.0770 O   0  0  0  0  0  0  0  0  0  0  0  0
    8.6850    6.6050   18.0660 C   0  0  0  0  0  0  0  0  0  0  0  0
    1.4030    8.8930   20.9430 C   0  0  0  0  0  0  0  0  0  0  0  0
    9.5840    6.4540   15.8040 C   0  0  0  0  0  0  0  0  0  0  0  0
    0.5190    7.2570   18.0310 O   0  0  0  0  0  0  0  0  0  0  0  0
    4.7000    7.6580   18.5310 C   0  0  3  0  0  0  0  0  0  0  0  0
    6.7980    8.1340   18.4640 C   0  0  0  0  0  0  0  0  0  0  0  0
    8.9680    9.0260   17.6160 C   0  0  0  0  0  0  0  0  0  0  0  0
    9.2450    6.0070   19.3320 C   0  0  0  0  0  0  0  0  0  0  0  0
   -1.7480    6.6710   22.9190 C   0  0  0  0  0  0  0  0  0  0  0  0
    3.8150    9.4840   20.0640 C   0  0  0  0  0  0  0  0  0  0  0  0
    6.2890    8.9790   19.4030 N   0  0  0  0  0  0  0  0  0  0  0  0
    3.4080    7.6000   21.6890 C   0  0  0  0  0  0  0  0  0  0  0  0
    8.1940    7.9610   18.1080 C   0  0  0  0  0  0  0  0  0  0  0  0
    9.9540    8.7950   16.6330 C   0  0  0  0  0  0  0  0  0  0  0  0
    5.8350    7.4040   17.8470 N   0  0  0  0  0  0  0  0  0  0  0  0
    2.8130    8.4080   20.5240 C   0  0  2  0  0  0  0  0  0  0  0  0
    3.4570    6.9420   18.5200 C   0  0  0  0  0  0  0  0  0  0  0  0
  1 19  1  0  0  0  0
  1 24  1  0  0  0  0
  1 25  1  0  0  0  0
  2  4  1  0  0  0  0
  2 30  1  0  0  0  0
  2 31  1  0  0  0  0
  3 17  2  0  0  0  0
  3 28  1  0  0  0  0
  4  7  1  0  0  0  0
  4 18  2  0  0  0  0
  5  7  1  0  0  0  0
  5 10  1  0  0  0  0
  5 12  1  0  0  0  0
  5 14  1  0  0  0  0
  6 13  1  0  0  0  0
  6 23  1  0  0  0  0
  7 16  1  0  0  0  0
  8 15  2  0  0  0  0
  8 17  1  0  0  0  0
  9 11  1  0  0  0  0
  9 12  1  0  0  0  0
 10 13  1  0  0  0  0
 11 13  1  0  0  0  0
 12 23  1  0  0  0  0
 15 22  1  0  0  0  0
 15 27  1  0  0  0  0
 16 30  1  0  0  0  0
 19 29  1  0  0  0  0
 19 31  1  0  0  0  0
 20 25  2  0  0  0  0
 20 27  1  0  0  0  0
 20 29  1  0  0  0  0
 21 27  2  0  0  0  0
 21 28  1  0  0  0  0
 24 30  1  0  0  0  0
 26 30  1  0  0  0  0
M  END
>  <Original_Directory>
4fta_A_rec_2hxq_373_lig_tt_docked_4_pocket10

>  <Original_Filename>
4fta_A_rec_2hxq_373_lig_tt_docked_4_pocket10_gen_sample_3.sdf

>  <Molecule_ID>
sample_3

>  <logS>
-4.9502702

$$$$