/tmp/tmpdwfun3ir
  MOE2022           3D

 20 24  0  0  1  0  0  0  0  0999 V2000
   11.5700   -2.3780   13.2390 C   0  0  3  0  0  0  0  0  0  0  0  0
    9.8680   -0.9050   12.2590 C   0  0  3  0  0  0  0  0  0  0  0  0
   14.6780    1.6280   13.9990 C   0  0  0  0  0  0  0  0  0  0  0  0
    9.0510   -2.0830   11.7190 C   0  0  0  0  0  0  0  0  0  0  0  0
    9.3920   -3.4400   12.2770 C   0  0  0  0  0  0  0  0  0  0  0  0
   12.8300    0.9240   11.5880 C   0  0  3  0  0  0  0  0  0  0  0  0
   11.5040   -1.8240   14.6590 C   0  0  3  0  0  0  0  0  0  0  0  0
    9.4250   -0.4950   13.6680 C   0  0  0  0  0  0  0  0  0  0  0  0
   13.7920    3.1400   12.2090 C   0  0  0  0  0  0  0  0  0  0  0  0
   14.0710    4.0070   11.4000 O   0  0  0  0  0  0  0  0  0  0  0  0
   10.2280   -1.0090   14.8850 C   0  0  0  0  0  0  0  0  0  0  0  0
   12.4970    2.3370   12.0860 C   0  0  0  0  0  0  0  0  0  0  0  0
   13.3470   -0.4540   13.5400 C   0  0  3  0  0  0  0  0  0  0  0  0
   12.2450   -0.0790   12.5730 C   0  0  3  0  0  0  0  0  0  0  0  0
   14.6180    2.8570   13.2760 O   0  0  0  0  0  0  0  0  0  0  0  0
   11.3650   -1.2640   12.2290 C   0  0  3  0  0  0  0  0  0  0  0  0
   12.7650   -0.9690   14.8440 C   0  0  0  0  0  0  0  0  0  0  0  0
   14.5630    0.3690   13.1300 C   0  0  3  0  0  0  0  0  0  0  0  0
   14.3420    0.7000   11.6510 C   0  0  0  0  0  0  0  0  0  0  0  0
   10.7090   -3.5900   12.9900 C   0  0  0  0  0  0  0  0  0  0  0  0
  1  7  1  0  0  0  0
  1 16  1  0  0  0  0
  1 20  1  0  0  0  0
  2  4  1  0  0  0  0
  2  8  1  0  0  0  0
  2 16  1  0  0  0  0
  3 15  1  0  0  0  0
  3 18  1  0  0  0  0
  4  5  1  0  0  0  0
  5 20  2  0  0  0  0
  6 12  1  0  0  0  0
  6 14  1  0  0  0  0
  6 19  1  0  0  0  0
  7 11  1  0  0  0  0
  7 17  1  0  0  0  0
  8 11  2  0  0  0  0
  9 10  2  0  0  0  0
  9 12  1  0  0  0  0
  9 15  1  0  0  0  0
 13 14  1  0  0  0  0
 13 17  1  0  0  0  0
 13 18  1  0  0  0  0
 14 16  1  0  0  0  0
 18 19  1  0  0  0  0
M  END
>  <Original_Directory>
3cd2_A_rec_4ixg_ixg_lig_tt_min_0_pocket10

>  <Original_Filename>
3cd2_A_rec_4ixg_ixg_lig_tt_min_0_pocket10_gen_sample_2.sdf

>  <Molecule_ID>
sample_2

>  <logS>
-3.76717

$$$$