/tmp/tmpuvsupmbm
  MOE2022           3D

 11 11  0  0  1  0  0  0  0  0999 V2000
   23.3190  127.1610   41.5550 C   0  0  0  0  0  0  0  0  0  0  0  0
   24.6070  125.0550   41.6160 C   0  0  0  0  0  0  0  0  0  0  0  0
   23.9580  129.3730   41.1160 O   0  0  0  0  0  0  0  0  0  0  0  0
   24.8510  124.0990   42.3560 O   0  0  0  0  0  0  0  0  0  0  0  0
   24.3480  128.0690   41.2320 C   0  0  3  0  0  0  0  0  0  0  0  0
   22.2880  125.1240   42.1800 O   0  0  0  0  0  0  0  0  0  0  0  0
   23.3740  125.8470   41.7810 C   0  0  0  0  0  0  0  0  0  0  0  0
   25.4090  125.3840   40.5590 N   0  0  0  0  0  0  0  0  0  0  0  0
   27.0270  126.5330   39.5560 O   0  0  0  0  0  0  0  0  0  0  0  0
   25.6470  127.7350   40.9510 C   0  0  0  0  0  0  0  0  0  0  0  0
   26.0900  126.5380   40.3650 C   0  0  0  0  0  0  0  0  0  0  0  0
  1  5  1  0  0  0  0
  1  7  2  0  0  0  0
  2  4  2  0  0  0  0
  2  7  1  0  0  0  0
  2  8  1  0  0  0  0
  3  5  1  0  0  0  0
  5 10  1  0  0  0  0
  6  7  1  0  0  0  0
  8 11  1  0  0  0  0
  9 11  2  0  0  0  0
 10 11  1  0  0  0  0
M  END
>  <Original_Directory>
1rct_E_rec_3iny_7dg_lig_tt_min_0_pocket10

>  <Original_Filename>
1rct_E_rec_3iny_7dg_lig_tt_min_0_pocket10_gen_sample_13.sdf

>  <Molecule_ID>
sample_13

>  <logS>
-0.15854

$$$$