/tmp/tmplyto_3is
  MOE2022           3D

 23 24  0  0  1  0  0  0  0  0999 V2000
    9.9590  -19.5030   -5.6950 C   0  0  0  0  0  0  0  0  0  0  0  0
    9.4070  -22.1740   -5.2740 N   0  0  0  0  0  0  0  0  0  0  0  0
   11.6970  -22.7830   -3.0080 C   0  0  0  0  0  0  0  0  0  0  0  0
   11.4900  -22.7760   -4.3890 C   0  0  0  0  0  0  0  0  0  0  0  0
   15.1280  -19.0760   -4.6980 O   0  0  0  0  0  0  0  0  0  0  0  0
   12.8280  -23.3000   -2.4080 C   0  0  0  0  0  0  0  0  0  0  0  0
   14.0340  -23.5130   -3.0510 C   0  0  0  0  0  0  0  0  0  0  0  0
   12.7880  -17.7460   -5.7950 O   0  0  0  0  0  0  0  0  0  0  0  0
   17.5050  -20.1820   -6.2070 O   0  0  0  0  0  0  0  0  0  0  0  0
   15.1620  -20.4180   -6.7820 C   0  0  0  0  0  0  0  0  0  0  0  0
   14.3320  -23.4300   -4.3970 C   0  0  0  0  0  0  0  0  0  0  0  0
   11.0560  -20.4400   -5.2130 C   0  0  3  0  0  0  0  0  0  0  0  0
   13.0660  -19.1290   -6.0380 C   0  0  3  0  0  0  0  0  0  0  0  0
   14.5870  -19.2960   -5.9550 C   0  0  3  0  0  0  0  0  0  0  0  0
   16.1680  -21.7480   -4.9230 C   0  0  0  0  0  0  0  0  0  0  0  0
   15.5910  -22.8860   -4.8380 C   0  0  0  0  0  0  0  0  0  0  0  0
   12.0820  -23.6920   -5.2680 C   0  0  0  0  0  0  0  0  0  0  0  0
    9.5900  -19.6040   -6.9030 O   0  0  0  0  0  0  0  0  0  0  0  0
    9.3860  -18.7250   -4.9190 O   0  0  0  0  0  0  0  0  0  0  0  0
   10.5950  -21.7680   -4.9850 C   0  0  0  0  0  0  0  0  0  0  0  0
   13.4440  -23.9410   -5.3380 C   0  0  0  0  0  0  0  0  0  0  0  0
   12.3210  -19.9570   -5.0070 C   0  0  0  0  0  0  0  0  0  0  0  0
   16.4230  -21.1100   -6.2860 C   0  0  3  0  0  0  0  0  0  0  0  0
  1 12  1  0  0  0  0
  1 18  2  0  0  0  0
  1 19  1  0  0  0  0
  2 20  2  0  0  0  0
  3  4  2  0  0  0  0
  3  6  1  0  0  0  0
  4 17  1  0  0  0  0
  4 20  1  0  0  0  0
  5 14  1  0  0  0  0
  6  7  1  0  0  0  0
  7 11  2  0  0  0  0
  8 13  1  0  0  0  0
  9 23  1  0  0  0  0
 10 14  1  0  0  0  0
 10 23  1  0  0  0  0
 11 16  1  0  0  0  0
 11 21  1  0  0  0  0
 12 20  1  0  0  0  0
 12 22  1  0  0  0  0
 13 14  1  0  0  0  0
 13 22  1  0  0  0  0
 15 16  1  0  0  0  0
 15 23  1  0  0  0  0
 17 21  2  0  0  0  0
M  END
>  <Original_Directory>
3leo_A_rec_3hkk_gts_lig_tt_docked_0_pocket10

>  <Original_Filename>
3leo_A_rec_3hkk_gts_lig_tt_docked_0_pocket10_gen_sample_3.sdf

>  <Molecule_ID>
sample_3

>  <logS>
-1.78427

$$$$