/tmp/tmpae9_pyas
  MOE2022           3D

 10 10  0  0  1  0  0  0  0  0999 V2000
  -10.5510    6.7030  -10.5230 O   0  0  0  0  0  0  0  0  0  0  0  0
  -11.3070    9.9180  -11.6340 C   0  0  0  0  0  0  0  0  0  0  0  0
  -10.8200    7.8960  -13.9380 C   0  0  0  0  0  0  0  0  0  0  0  0
  -10.8680   10.1520  -12.9080 C   0  0  0  0  0  0  0  0  0  0  0  0
  -11.6450    8.6670  -11.1590 C   0  0  3  0  0  0  0  0  0  0  0  0
  -11.0190    7.4980  -11.5490 C   0  0  0  0  0  0  0  0  0  0  0  0
  -10.8860    7.0640  -12.8420 C   0  0  0  0  0  0  0  0  0  0  0  0
  -10.5530    9.2430  -13.8700 C   0  0  0  0  0  0  0  0  0  0  0  0
  -12.6500    8.5620  -10.2220 O   0  0  0  0  0  0  0  0  0  0  0  0
  -11.0740    7.3660  -15.1880 O   0  0  0  0  0  0  0  0  0  0  0  0
  1  6  1  0  0  0  0
  2  4  2  0  0  0  0
  2  5  1  0  0  0  0
  3  7  1  0  0  0  0
  3  8  2  0  0  0  0
  3 10  1  0  0  0  0
  4  8  1  0  0  0  0
  5  6  1  0  0  0  0
  5  9  1  0  0  0  0
  6  7  2  0  0  0  0
M  END
>  <Original_Directory>
5jza_A_rec_5jza_oga_lig_tt_min_0_pocket10

>  <Original_Filename>
5jza_A_rec_5jza_oga_lig_tt_min_0_pocket10_gen_sample_17.sdf

>  <Molecule_ID>
sample_17

>  <logS>
-0.40246001

$$$$