/tmp/tmpg8y0mdgh
  MOE2022           3D

 10 10  0  0  0  0  0  0  0  0999 V2000
  -11.5790   10.3980  -10.8070 O   0  0  0  0  0  0  0  0  0  0  0  0
   -9.1340    8.1500  -13.9840 C   0  0  0  0  0  0  0  0  0  0  0  0
   -9.8140    7.2410  -10.4160 C   0  0  0  0  0  0  0  0  0  0  0  0
   -9.8640    7.9600  -12.7120 C   0  0  0  0  0  0  0  0  0  0  0  0
  -11.0780    9.1560  -11.0660 C   0  0  0  0  0  0  0  0  0  0  0  0
  -10.5730    8.3520  -10.0540 C   0  0  0  0  0  0  0  0  0  0  0  0
   -9.4200    7.0580  -11.7410 C   0  0  0  0  0  0  0  0  0  0  0  0
   -9.0880    9.5610  -14.5160 C   0  0  0  0  0  0  0  0  0  0  0  0
   -8.6980    7.2170  -14.6280 O   0  0  0  0  0  0  0  0  0  0  0  0
  -10.9610    8.7620  -12.4060 C   0  0  0  0  0  0  0  0  0  0  0  0
  1  5  1  0  0  0  0
  2  4  1  0  0  0  0
  2  8  1  0  0  0  0
  2  9  2  0  0  0  0
  3  6  2  0  0  0  0
  3  7  1  0  0  0  0
  4  7  2  0  0  0  0
  4 10  1  0  0  0  0
  5  6  1  0  0  0  0
  5 10  2  0  0  0  0
M  END
>  <Original_Directory>
5jza_A_rec_5jza_oga_lig_tt_min_0_pocket10

>  <Original_Filename>
5jza_A_rec_5jza_oga_lig_tt_min_0_pocket10_gen_sample_1.sdf

>  <Molecule_ID>
sample_1

>  <logS>
-1.3352

$$$$