/tmp/tmp28pzvhpl
  MOE2022           3D

 13 14  0  0  0  0  0  0  0  0999 V2000
  -56.0940   14.1460  -20.3600 C   0  0  0  0  0  0  0  0  0  0  0  0
  -54.3080   14.5130  -18.7680 C   0  0  0  0  0  0  0  0  0  0  0  0
  -56.4830   15.4830  -20.2150 C   0  0  0  0  0  0  0  0  0  0  0  0
  -53.7900   12.2500  -21.2000 O   0  0  0  0  0  0  0  0  0  0  0  0
  -54.5970   17.9670  -18.3640 C   0  0  0  0  0  0  0  0  0  0  0  0
  -54.2100   16.7750  -17.8750 N   0  0  0  0  0  0  0  0  0  0  0  0
  -54.9470   13.6890  -19.6880 C   0  0  0  0  0  0  0  0  0  0  0  0
  -55.9400   18.7210  -20.2820 O   0  0  0  0  0  0  0  0  0  0  0  0
  -55.5020   16.3530  -19.6810 C   0  0  0  0  0  0  0  0  0  0  0  0
  -54.7730   15.7970  -18.6390 N   0  0  0  0  0  0  0  0  0  0  0  0
  -54.3030   12.3820  -20.0610 C   0  0  0  0  0  0  0  0  0  0  0  0
  -54.2970   11.4720  -19.1850 O   0  0  0  0  0  0  0  0  0  0  0  0
  -55.5040   17.7570  -19.4170 C   0  0  0  0  0  0  0  0  0  0  0  0
  1  3  2  0  0  0  0
  1  7  1  0  0  0  0
  2  7  2  0  0  0  0
  2 10  1  0  0  0  0
  3  9  1  0  0  0  0
  4 11  2  0  0  0  0
  5  6  2  0  0  0  0
  5 13  1  0  0  0  0
  6 10  1  0  0  0  0
  7 11  1  0  0  0  0
  8 13  1  0  0  0  0
  9 10  1  0  0  0  0
  9 13  2  0  0  0  0
 11 12  1  0  0  0  0
M  END
>  <Original_Directory>
4zbc_B_rec_1xyc_3mf_lig_tt_min_0_pocket10

>  <Original_Filename>
4zbc_B_rec_1xyc_3mf_lig_tt_min_0_pocket10_gen_sample_3.sdf

>  <Molecule_ID>
sample_3

>  <logS>
-0.41212001

$$$$