/tmp/tmph_xey8cx
  MOE2022           3D

 16 17  0  0  0  0  0  0  0  0999 V2000
  -40.4300  -17.2030  -21.5590 C   0  0  0  0  0  0  0  0  0  0  0  0
  -43.5540  -18.5950  -20.9890 N   0  0  0  0  0  0  0  0  0  0  0  0
  -39.8040  -16.0730  -22.2770 C   0  0  0  0  0  0  0  0  0  0  0  0
  -41.7030  -17.1240  -21.1380 O   0  0  0  0  0  0  0  0  0  0  0  0
  -37.1840  -13.6760  -21.5790 O   0  0  0  0  0  0  0  0  0  0  0  0
  -39.7940  -16.0710  -23.6100 N   0  0  0  0  0  0  0  0  0  0  0  0
  -39.0220  -15.1830  -21.5440 C   0  0  0  0  0  0  0  0  0  0  0  0
  -41.0930  -19.2320  -21.1640 C   0  0  0  0  0  0  0  0  0  0  0  0
  -42.1980  -18.3850  -21.1530 C   0  0  0  0  0  0  0  0  0  0  0  0
  -38.2210  -14.2740  -22.2210 C   0  0  0  0  0  0  0  0  0  0  0  0
  -39.9940  -18.4580  -21.3650 N   0  0  0  0  0  0  0  0  0  0  0  0
  -44.2570  -19.7220  -20.7250 C   0  0  0  0  0  0  0  0  0  0  0  0
  -38.2220  -14.2880  -23.6230 C   0  0  0  0  0  0  0  0  0  0  0  0
  -39.1300  -15.1160  -24.2590 C   0  0  0  0  0  0  0  0  0  0  0  0
  -43.7790  -20.8040  -20.4850 O   0  0  0  0  0  0  0  0  0  0  0  0
  -45.7540  -19.5210  -20.7420 C   0  0  0  0  0  0  0  0  0  0  0  0
  1  3  1  0  0  0  0
  1  4  1  0  0  0  0
  1 11  2  0  0  0  0
  2  9  2  0  0  0  0
  2 12  1  0  0  0  0
  3  6  1  0  0  0  0
  3  7  2  0  0  0  0
  4  9  1  0  0  0  0
  5 10  1  0  0  0  0
  6 14  2  0  0  0  0
  7 10  1  0  0  0  0
  8  9  1  0  0  0  0
  8 11  1  0  0  0  0
 10 13  2  0  0  0  0
 12 15  2  0  0  0  0
 12 16  1  0  0  0  0
 13 14  1  0  0  0  0
M  END
>  <Original_Directory>
4c4f_A_rec_4bhz_7pe_lig_tt_docked_7_pocket10

>  <Original_Filename>
4c4f_A_rec_4bhz_7pe_lig_tt_docked_7_pocket10_gen_sample_7.sdf

>  <Molecule_ID>
sample_7

>  <logS>
-1.74001

$$$$