/tmp/tmpc15ewrrv
  MOE2022           3D

 32 35  0  0  1  0  0  0  0  0999 V2000
   14.7050   26.8300  -14.4640 C   0  0  0  0  0  0  0  0  0  0  0  0
   13.5060   24.3640  -14.5010 C   0  0  0  0  0  0  0  0  0  0  0  0
   19.3940   28.5760   -5.8610 C   0  0  0  0  0  0  0  0  0  0  0  0
   11.4700   23.1320  -14.2090 C   0  0  0  0  0  0  0  0  0  0  0  0
   13.5720   21.8170  -14.1530 C   0  0  0  0  0  0  0  0  0  0  0  0
   12.9370   25.4690  -13.8420 C   0  0  0  0  0  0  0  0  0  0  0  0
   16.5420   28.1520  -13.5860 C   0  0  0  0  0  0  0  0  0  0  0  0
   15.2290   25.8340  -15.2870 C   0  0  0  0  0  0  0  0  0  0  0  0
   14.8000   30.4670  -14.0950 C   0  0  0  0  0  0  0  0  0  0  0  0
   14.1720   29.1950  -15.9800 O   0  0  0  0  0  0  0  0  0  0  0  0
   12.8530   23.1140  -14.3310 C   0  0  0  0  0  0  0  0  0  0  0  0
   18.2900   30.4640   -4.8780 O   0  0  0  0  0  0  0  0  0  0  0  0
   14.1230   21.2870  -15.1740 O   0  0  0  0  0  0  0  0  0  0  0  0
   14.6590   24.5730  -15.2520 C   0  0  0  0  0  0  0  0  0  0  0  0
   14.9950   30.3990  -12.5880 C   0  0  0  0  0  0  0  0  0  0  0  0
   15.0860   27.8830   -9.4270 C   0  0  0  0  0  0  0  0  0  0  0  0
   13.6700   26.5990  -13.6430 N   0  0  0  0  0  0  0  0  0  0  0  0
   13.8530   28.1510  -10.0360 C   0  0  0  0  0  0  0  0  0  0  0  0
   15.9950   28.1890  -12.2230 N   0  0  0  0  0  0  0  0  0  0  0  0
   19.0120   30.0360   -6.0180 C   0  0  3  0  0  0  0  0  0  0  0  0
   14.9100   29.0060  -12.0160 C   0  0  3  0  0  0  0  0  0  0  0  0
   17.9430   29.0030   -8.0530 C   0  0  0  0  0  0  0  0  0  0  0  0
   14.7290   29.1880  -14.9130 C   0  0  0  0  0  0  0  0  0  0  0  0
   10.8800   24.2390  -13.6150 C   0  0  0  0  0  0  0  0  0  0  0  0
   13.7680   28.5920  -11.3480 C   0  0  0  0  0  0  0  0  0  0  0  0
   15.3350   28.0500  -14.4110 N   0  0  0  0  0  0  0  0  0  0  0  0
   17.1560   29.3660   -9.3080 C   0  0  0  0  0  0  0  0  0  0  0  0
   13.6340   21.2870  -13.0160 O   0  0  0  0  0  0  0  0  0  0  0  0
   16.3210   28.2540   -9.8980 C   0  0  3  0  0  0  0  0  0  0  0  0
   11.6010   25.4110  -13.4520 C   0  0  0  0  0  0  0  0  0  0  0  0
   18.2350   30.3050   -7.3030 C   0  0  0  0  0  0  0  0  0  0  0  0
   16.8050   27.6130  -11.1580 C   0  0  0  0  0  0  0  0  0  0  0  0
  1  8  1  0  0  0  0
  1 17  2  0  0  0  0
  1 26  1  0  0  0  0
  2  6  1  0  0  0  0
  2 11  2  0  0  0  0
  2 14  1  0  0  0  0
  3 20  1  0  0  0  0
  4 11  1  0  0  0  0
  4 24  2  0  0  0  0
  5 11  1  0  0  0  0
  5 13  2  0  0  0  0
  5 28  1  0  0  0  0
  6 17  1  0  0  0  0
  6 30  2  0  0  0  0
  7 19  1  0  0  0  0
  7 26  1  0  0  0  0
  8 14  2  0  0  0  0
  9 15  1  0  0  0  0
  9 23  1  0  0  0  0
 10 23  2  0  0  0  0
 12 20  1  0  0  0  0
 15 21  1  0  0  0  0
 16 18  2  0  0  0  0
 16 29  1  0  0  0  0
 18 25  1  0  0  0  0
 19 21  1  0  0  0  0
 19 32  1  0  0  0  0
 20 31  1  0  0  0  0
 21 25  1  0  0  0  0
 22 27  1  0  0  0  0
 22 31  1  0  0  0  0
 23 26  1  0  0  0  0
 24 30  1  0  0  0  0
 27 29  1  0  0  0  0
 29 32  1  0  0  0  0
M  END
>  <Original_Directory>
4ivy_A_rec_2p15_ezt_lig_tt_docked_1_pocket10

>  <Original_Filename>
4ivy_A_rec_2p15_ezt_lig_tt_docked_1_pocket10_gen_sample_15.sdf

>  <Molecule_ID>
sample_15

>  <logS>
-3.2091401

$$$$