/tmp/tmpu0cllyzp
  MOE2022           3D

 18 19  0  0  1  0  0  0  0  0999 V2000
    9.5400   45.7060   21.3870 C   0  0  3  0  0  0  0  0  0  0  0  0
    7.8750   43.0460   19.1980 C   0  0  0  0  0  0  0  0  0  0  0  0
   11.8440   46.9630   22.3000 O   0  0  0  0  0  0  0  0  0  0  0  0
    9.5250   45.8980   22.8910 C   0  0  3  0  0  0  0  0  0  0  0  0
    8.5940   44.2160   19.8150 C   0  0  3  0  0  0  0  0  0  0  0  0
   11.8750   44.7010   23.3780 O   0  0  0  0  0  0  0  0  0  0  0  0
   11.2600   46.0440   23.3610 P   0  0  0  0  0  0  0  0  0  0  0  0
    6.3480   42.4460   17.4380 C   0  0  0  0  0  0  0  0  0  0  0  0
    9.5460   44.2760   20.9250 C   0  0  3  0  0  0  0  0  0  0  0  0
    8.5320   46.3370   20.5780 N   0  0  0  0  0  0  0  0  0  0  0  0
    8.8210   47.0480   23.3330 O   0  0  0  0  0  0  0  0  0  0  0  0
    7.1150   41.3180   17.1670 C   0  0  0  0  0  0  0  0  0  0  0  0
   10.5680   43.3700   21.1720 O   0  0  0  0  0  0  0  0  0  0  0  0
    8.0320   40.8850   18.1200 C   0  0  0  0  0  0  0  0  0  0  0  0
   11.2560   46.8010   24.6530 O   0  0  0  0  0  0  0  0  0  0  0  0
    8.4160   41.7600   19.1420 C   0  0  0  0  0  0  0  0  0  0  0  0
    6.6540   43.2340   18.5440 C   0  0  0  0  0  0  0  0  0  0  0  0
    8.2900   45.5360   19.5100 C   0  0  0  0  0  0  0  0  0  0  0  0
  1  4  1  0  0  0  0
  1  9  1  0  0  0  0
  1 10  1  0  0  0  0
  2  5  1  0  0  0  0
  2 16  1  0  0  0  0
  2 17  2  0  0  0  0
  3  7  2  0  0  0  0
  4  7  1  0  0  0  0
  4 11  1  0  0  0  0
  5  9  1  0  0  0  0
  5 18  1  0  0  0  0
  6  7  1  0  0  0  0
  7 15  1  0  0  0  0
  8 12  2  0  0  0  0
  8 17  1  0  0  0  0
  9 13  1  0  0  0  0
 10 18  1  0  0  0  0
 12 14  1  0  0  0  0
 14 16  2  0  0  0  0
M  END
>  <Original_Directory>
2cm8_A_rec_1gfy_col_lig_tt_min_0_pocket10

>  <Original_Filename>
2cm8_A_rec_1gfy_col_lig_tt_min_0_pocket10_gen_sample_4.sdf

>  <Molecule_ID>
sample_4

>  <logS>
-0.016380001

$$$$