/tmp/tmpaik3kr5i
  MOE2022           3D

 14 13  0  0  1  0  0  0  0  0999 V2000
   14.0160  -40.8980   51.6440 O   0  0  0  0  0  0  0  0  0  0  0  0
   12.2010  -42.4120   51.4690 C   0  0  3  0  0  0  0  0  0  0  0  0
   12.7750  -44.7100   50.7230 C   0  0  0  0  0  0  0  0  0  0  0  0
   12.0490  -39.9920   51.5840 O   0  0  0  0  0  0  0  0  0  0  0  0
   14.0340  -47.6430   49.8950 O   0  0  0  0  0  0  0  0  0  0  0  0
   13.2470  -44.4310   53.6450 O   0  0  0  0  0  0  0  0  0  0  0  0
   11.5800  -47.5010   50.3340 O   0  0  0  0  0  0  0  0  0  0  0  0
   13.0910  -45.8980   51.4310 O   0  0  0  0  0  0  0  0  0  0  0  0
   12.7610  -40.9990   51.5500 C   0  0  0  0  0  0  0  0  0  0  0  0
   13.3420  -43.4380   51.3710 C   0  0  3  0  0  0  0  0  0  0  0  0
   12.9430  -47.4120   50.9110 P   0  0  0  0  0  0  0  0  0  0  0  0
   13.0840  -48.3040   52.1090 O   0  0  0  0  0  0  0  0  0  0  0  0
   11.2780  -42.6570   52.5000 O   0  0  0  0  0  0  0  0  0  0  0  0
   14.0140  -43.6800   52.7360 C   0  0  0  0  0  0  0  0  0  0  0  0
  1  9  1  0  0  0  0
  2  9  1  0  0  0  0
  2 10  1  0  0  0  0
  2 13  1  0  0  0  0
  3  8  1  0  0  0  0
  3 10  1  0  0  0  0
  4  9  2  0  0  0  0
  5 11  2  0  0  0  0
  6 14  1  0  0  0  0
  7 11  1  0  0  0  0
  8 11  1  0  0  0  0
 10 14  1  0  0  0  0
 11 12  1  0  0  0  0
M  END
>  <Original_Directory>
2nxh_B_rec_1t8x_a5p_lig_tt_min_0_pocket10

>  <Original_Filename>
2nxh_B_rec_1t8x_a5p_lig_tt_min_0_pocket10_gen_sample_11.sdf

>  <Molecule_ID>
sample_11

>  <logS>
1.15733

$$$$