/tmp/tmpt6f5fqka
  MOE2022           3D

 12 11  0  0  0  0  0  0  0  0999 V2000
   24.9450    7.6410   54.0980 C   0  0  0  0  0  0  0  0  0  0  0  0
   22.0820    7.5740   53.8060 C   0  0  0  0  0  0  0  0  0  0  0  0
   21.7190    7.6510   50.6010 O   0  0  0  0  0  0  0  0  0  0  0  0
   20.9440    7.6580   52.9680 O   0  0  0  0  0  0  0  0  0  0  0  0
   19.3640    8.0680   51.1020 O   0  0  0  0  0  0  0  0  0  0  0  0
   20.7810    8.3370   51.5480 P   0  0  0  0  0  0  0  0  0  0  0  0
   25.7140    7.9570   55.0320 O   0  0  0  0  0  0  0  0  0  0  0  0
   22.6150    9.8510   54.2210 O   0  0  0  0  0  0  0  0  0  0  0  0
   23.0160    8.8010   53.7860 C   0  0  0  0  0  0  0  0  0  0  0  0
   24.2970    8.5920   53.4020 N   0  0  0  0  0  0  0  0  0  0  0  0
   24.5990    6.4390   53.9340 O   0  0  0  0  0  0  0  0  0  0  0  0
   21.0510    9.7820   51.6500 O   0  0  0  0  0  0  0  0  0  0  0  0
  1  7  1  0  0  0  0
  1 10  1  0  0  0  0
  1 11  2  0  0  0  0
  2  4  1  0  0  0  0
  2  9  1  0  0  0  0
  3  6  2  0  0  0  0
  4  6  1  0  0  0  0
  5  6  1  0  0  0  0
  6 12  1  0  0  0  0
  8  9  2  0  0  0  0
  9 10  1  0  0  0  0
M  END
>  <Original_Directory>
5cnk_C_rec_2e4y_52a_lig_tt_docked_0_pocket10

>  <Original_Filename>
5cnk_C_rec_2e4y_52a_lig_tt_docked_0_pocket10_gen_sample_9.sdf

>  <Molecule_ID>
sample_9

>  <logS>
0.60004997

$$$$