/tmp/tmpj8197asx
  MOE2022           3D

 27 30  0  0  1  0  0  0  0  0999 V2000
  -41.8720  -41.4940  -11.6260 C   0  0  0  0  0  0  0  0  0  0  0  0
  -38.7970  -41.8320   -9.3930 C   0  0  3  0  0  0  0  0  0  0  0  0
  -37.1600  -41.8080   -7.7340 O   0  0  0  0  0  0  0  0  0  0  0  0
  -39.7290  -37.3450  -15.3870 C   0  0  0  0  0  0  0  0  0  0  0  0
  -38.3820  -40.6880  -11.4460 C   0  0  0  0  0  0  0  0  0  0  0  0
  -40.4870  -35.9620  -19.2660 O   0  0  0  0  0  0  0  0  0  0  0  0
  -39.2840  -41.7830   -7.0670 O   0  0  0  0  0  0  0  0  0  0  0  0
  -41.1940  -38.3350  -13.6720 N   0  0  0  0  0  0  0  0  0  0  0  0
  -38.5690  -37.7440  -14.8390 O   0  0  0  0  0  0  0  0  0  0  0  0
  -40.6050  -38.2400  -12.4550 C   0  0  0  0  0  0  0  0  0  0  0  0
  -42.0590  -34.5400  -18.4670 N   0  0  0  0  0  0  0  0  0  0  0  0
  -41.0940  -35.4530  -18.3200 C   0  0  0  0  0  0  0  0  0  0  0  0
  -40.9230  -37.3600  -14.6250 C   0  0  0  0  0  0  0  0  0  0  0  0
  -40.2900  -37.1840  -11.9150 O   0  0  0  0  0  0  0  0  0  0  0  0
  -40.8060  -35.8920  -16.9450 C   0  0  0  0  0  0  0  0  0  0  0  0
  -37.8870  -41.4510  -10.3920 C   0  0  0  0  0  0  0  0  0  0  0  0
  -40.6250  -39.5130  -11.9480 C   0  0  3  0  0  0  0  0  0  0  0  0
  -41.8580  -40.1880  -12.3980 C   0  0  3  0  0  0  0  0  0  0  0  0
  -39.7540  -36.7510  -16.6470 C   0  0  0  0  0  0  0  0  0  0  0  0
  -42.0770  -39.3810  -13.6430 C   0  0  0  0  0  0  0  0  0  0  0  0
  -40.5600  -41.4620  -10.8990 C   0  0  3  0  0  0  0  0  0  0  0  0
  -39.7560  -40.4480  -11.4210 C   0  0  3  0  0  0  0  0  0  0  0  0
  -41.6030  -35.4480  -15.8960 C   0  0  0  0  0  0  0  0  0  0  0  0
  -38.4100  -41.7920   -7.9480 C   0  0  0  0  0  0  0  0  0  0  0  0
  -43.0270  -39.5430  -14.3750 O   0  0  0  0  0  0  0  0  0  0  0  0
  -41.7860  -36.2850  -14.8010 C   0  0  0  0  0  0  0  0  0  0  0  0
  -40.1100  -42.1330   -9.7720 C   0  0  0  0  0  0  0  0  0  0  0  0
  1 18  1  0  0  0  0
  1 21  1  0  0  0  0
  2 16  1  0  0  0  0
  2 24  1  0  0  0  0
  2 27  1  0  0  0  0
  3 24  2  0  0  0  0
  4  9  1  0  0  0  0
  4 13  1  0  0  0  0
  4 19  2  0  0  0  0
  5 16  2  0  0  0  0
  5 22  1  0  0  0  0
  6 12  2  0  0  0  0
  7 24  1  0  0  0  0
  8 10  1  0  0  0  0
  8 13  1  0  0  0  0
  8 20  1  0  0  0  0
 10 14  2  0  0  0  0
 10 17  1  0  0  0  0
 11 12  1  0  0  0  0
 12 15  1  0  0  0  0
 13 26  2  0  0  0  0
 15 19  1  0  0  0  0
 15 23  2  0  0  0  0
 17 18  1  0  0  0  0
 17 22  1  0  0  0  0
 18 20  1  0  0  0  0
 20 25  2  0  0  0  0
 21 22  1  0  0  0  0
 21 27  1  0  0  0  0
 23 26  1  0  0  0  0
M  END
>  <Original_Directory>
4d4k_A_rec_5ajy_87t_lig_tt_docked_1_pocket10

>  <Original_Filename>
4d4k_A_rec_5ajy_87t_lig_tt_docked_1_pocket10_gen_sample_15.sdf

>  <Molecule_ID>
sample_15

>  <logS>
-2.5258801

$$$$