/tmp/tmp_y_ffyh2
  MOE2022           3D

 14 14  0  0  1  0  0  0  0  0999 V2000
    9.4170   42.9780   21.2210 C   0  0  0  0  0  0  0  0  0  0  0  0
   13.5570   44.3490   22.5230 C   0  0  0  0  0  0  0  0  0  0  0  0
   13.6440   46.4300   23.2020 O   0  0  0  0  0  0  0  0  0  0  0  0
    8.5670   46.5010   21.2210 O   0  0  0  0  0  0  0  0  0  0  0  0
   14.8430   45.8940   23.4830 C   0  0  0  0  0  0  0  0  0  0  0  0
   14.8190   44.5670   23.0440 C   0  0  0  0  0  0  0  0  0  0  0  0
    9.9710   45.4510   23.7890 O   0  0  0  0  0  0  0  0  0  0  0  0
    9.3870   44.3400   20.5780 C   0  0  0  0  0  0  0  0  0  0  0  0
   10.2710   45.5960   22.6180 C   0  0  0  0  0  0  0  0  0  0  0  0
    9.2490   45.5210   21.5370 C   0  0  0  0  0  0  0  0  0  0  0  0
   11.7580   46.5600   20.9630 C   0  0  0  0  0  0  0  0  0  0  0  0
   12.7840   45.4340   22.8540 C   0  0  3  0  0  0  0  0  0  0  0  0
   11.6380   45.8640   22.0660 C   0  0  0  0  0  0  0  0  0  0  0  0
   15.7530   46.5950   23.9170 O   0  0  0  0  0  0  0  0  0  0  0  0
  1  8  1  0  0  0  0
  2  6  1  0  0  0  0
  2 12  1  0  0  0  0
  3  5  1  0  0  0  0
  3 12  1  0  0  0  0
  4 10  2  0  0  0  0
  5  6  1  0  0  0  0
  5 14  2  0  0  0  0
  7  9  2  0  0  0  0
  8 10  1  0  0  0  0
  9 10  1  0  0  0  0
  9 13  1  0  0  0  0
 11 13  2  0  0  0  0
 12 13  1  0  0  0  0
M  END
>  <Original_Directory>
1bzc_A_rec_1wax_lo1_lig_tt_min_0_pocket10

>  <Original_Filename>
1bzc_A_rec_1wax_lo1_lig_tt_min_0_pocket10_gen_sample_1.sdf

>  <Molecule_ID>
sample_1

>  <logS>
-1.6088901

$$$$