/tmp/tmpn2dsu5kx
  MOE2022           3D

 25 28  0  0  1  0  0  0  0  0999 V2000
    0.6780    1.0320   37.3510 C   0  0  0  0  0  0  0  0  0  0  0  0
    0.1240    0.3200   38.4330 O   0  0  0  0  0  0  0  0  0  0  0  0
    0.3880    3.0770   35.9790 C   0  0  3  0  0  0  0  0  0  0  0  0
    0.4920    4.6840   34.2750 C   0  0  0  0  0  0  0  0  0  0  0  0
    1.5340    4.4900   32.0590 C   0  0  0  0  0  0  0  0  0  0  0  0
    0.3390    8.1860   29.0050 O   0  0  0  0  0  0  0  0  0  0  0  0
    0.9540    0.1590   36.2930 O   0  0  0  0  0  0  0  0  0  0  0  0
   -0.0140    8.8930   30.2720 P   0  0  0  0  0  0  0  0  0  0  0  0
   -0.0550   10.3800   30.0740 O   0  0  0  0  0  0  0  0  0  0  0  0
    2.3060    5.1410   31.1120 C   0  0  0  0  0  0  0  0  0  0  0  0
    0.1260    7.3670   33.9180 C   0  0  0  0  0  0  0  0  0  0  0  0
    1.3660    7.2450   31.7830 C   0  0  0  0  0  0  0  0  0  0  0  0
    1.9850    1.6430   37.8670 C   0  0  0  0  0  0  0  0  0  0  0  0
    1.1100    8.5570   31.4420 N   0  0  0  0  0  0  0  0  0  0  0  0
    0.8480    5.2270   33.0230 C   0  0  0  0  0  0  0  0  0  0  0  0
    0.0580    3.4000   34.6910 C   0  0  0  0  0  0  0  0  0  0  0  0
    1.4690    3.7570   36.5530 C   0  0  3  0  0  0  0  0  0  0  0  0
    0.7100    6.6210   32.8620 C   0  0  0  0  0  0  0  0  0  0  0  0
    2.2910    6.5200   31.0320 C   0  0  0  0  0  0  0  0  0  0  0  0
    0.4160    6.9080   35.2110 C   0  0  0  0  0  0  0  0  0  0  0  0
    2.4120    2.9720   37.3520 C   0  0  0  0  0  0  0  0  0  0  0  0
    0.8550    5.5670   35.3270 C   0  0  0  0  0  0  0  0  0  0  0  0
   -0.3250    2.0980   36.8820 C   0  0  0  0  0  0  0  0  0  0  0  0
    1.7870    5.0480   36.2040 O   0  0  0  0  0  0  0  0  0  0  0  0
   -1.3410    8.3310   30.6790 O   0  0  0  0  0  0  0  0  0  0  0  0
  1  2  1  0  0  0  0
  1  7  1  0  0  0  0
  1 13  1  0  0  0  0
  1 23  1  0  0  0  0
  3 16  1  0  0  0  0
  3 17  1  0  0  0  0
  3 23  1  0  0  0  0
  4 15  2  0  0  0  0
  4 16  1  0  0  0  0
  4 22  1  0  0  0  0
  5 10  2  0  0  0  0
  5 15  1  0  0  0  0
  6  8  2  0  0  0  0
  8  9  1  0  0  0  0
  8 14  1  0  0  0  0
  8 25  1  0  0  0  0
 10 19  1  0  0  0  0
 11 18  2  0  0  0  0
 11 20  1  0  0  0  0
 12 14  1  0  0  0  0
 12 18  1  0  0  0  0
 12 19  2  0  0  0  0
 13 21  2  0  0  0  0
 15 18  1  0  0  0  0
 17 21  1  0  0  0  0
 17 24  1  0  0  0  0
 20 22  2  0  0  0  0
 22 24  1  0  0  0  0
M  END
>  <Original_Directory>
2uym_A_rec_2uyi_k02_lig_tt_docked_0_pocket10

>  <Original_Filename>
2uym_A_rec_2uyi_k02_lig_tt_docked_0_pocket10_gen_sample_11.sdf

>  <Molecule_ID>
sample_11

>  <logS>
-3.1379399

$$$$