/tmp/tmp_js5lgij
  MOE2022           3D

 12 11  0  0  0  0  0  0  0  0999 V2000
  -79.9480   86.3490   64.5750 C   0  0  0  0  0  0  0  0  0  0  0  0
  -78.7270   88.5460   64.1370 N   0  0  0  0  0  0  0  0  0  0  0  0
  -77.1670   89.4340   66.8880 C   0  0  0  0  0  0  0  0  0  0  0  0
  -77.4410   88.1180   64.6800 C   0  0  0  0  0  0  0  0  0  0  0  0
  -80.1550   85.7360   63.5120 O   0  0  0  0  0  0  0  0  0  0  0  0
  -77.3200   88.0600   66.2100 C   0  0  0  0  0  0  0  0  0  0  0  0
  -74.1970   91.5810   65.7800 O   0  0  0  0  0  0  0  0  0  0  0  0
  -74.8680   91.3780   66.8100 C   0  0  0  0  0  0  0  0  0  0  0  0
  -79.7080   85.7860   65.6480 O   0  0  0  0  0  0  0  0  0  0  0  0
  -79.9760   87.8730   64.5060 C   0  0  0  0  0  0  0  0  0  0  0  0
  -75.7710   90.0920   66.8340 C   0  0  0  0  0  0  0  0  0  0  0  0
  -74.5450   91.9140   67.8840 O   0  0  0  0  0  0  0  0  0  0  0  0
  1  5  2  0  0  0  0
  1  9  1  0  0  0  0
  1 10  1  0  0  0  0
  2  4  1  0  0  0  0
  2 10  1  0  0  0  0
  3  6  1  0  0  0  0
  3 11  1  0  0  0  0
  4  6  1  0  0  0  0
  7  8  2  0  0  0  0
  8 11  1  0  0  0  0
  8 12  1  0  0  0  0
M  END
>  <Original_Directory>
1gyk_A_rec_2w08_tpo_lig_tt_min_0_pocket10

>  <Original_Filename>
1gyk_A_rec_2w08_tpo_lig_tt_min_0_pocket10_gen_sample_12.sdf

>  <Molecule_ID>
sample_12

>  <logS>
0.36537999

$$$$