/tmp/tmpfqv41g2z
  MOE2022           3D

 23 26  0  0  1  0  0  0  0  0999 V2000
   10.2750    9.7930   15.9080 C   0  0  0  0  0  0  0  0  0  0  0  0
    8.6800    8.5310   17.4290 C   0  0  0  0  0  0  0  0  0  0  0  0
    0.1440    8.6250   20.2140 C   0  0  0  0  0  0  0  0  0  0  0  0
    9.1420    7.1950   17.3100 C   0  0  0  0  0  0  0  0  0  0  0  0
   11.2190    7.5420   15.8750 C   0  0  0  0  0  0  0  0  0  0  0  0
    7.7880    8.9350   18.5000 C   0  0  3  0  0  0  0  0  0  0  0  0
    4.1190    9.1180   19.3140 C   0  0  3  0  0  0  0  0  0  0  0  0
    1.1900    9.6400   19.8240 C   0  0  3  0  0  0  0  0  0  0  0  0
    7.1210   10.8950   19.6690 C   0  0  0  0  0  0  0  0  0  0  0  0
    8.1460    9.9870   19.3760 C   0  0  0  0  0  0  0  0  0  0  0  0
    5.5140    9.4730   18.9790 C   0  0  0  0  0  0  0  0  0  0  0  0
    1.1110    7.1630   18.3440 C   0  0  0  0  0  0  0  0  0  0  0  0
    3.4850    7.9840   18.5500 C   0  0  0  0  0  0  0  0  0  0  0  0
    3.6550    9.3870   20.7320 C   0  0  0  0  0  0  0  0  0  0  0  0
    6.4480    8.5080   18.5680 C   0  0  0  0  0  0  0  0  0  0  0  0
   11.3050    8.8940   15.5920 C   0  0  0  0  0  0  0  0  0  0  0  0
    2.0990    8.2560   17.9710 C   0  0  3  0  0  0  0  0  0  0  0  0
   -0.0800    7.5130   19.2070 C   0  0  0  0  0  0  0  0  0  0  0  0
    1.5680    9.6390   18.3530 C   0  0  0  0  0  0  0  0  0  0  0  0
    2.2480    9.9450   20.8590 C   0  0  0  0  0  0  0  0  0  0  0  0
    9.0660    9.4950   16.5060 C   0  0  0  0  0  0  0  0  0  0  0  0
    5.8990   10.7800   19.0910 N   0  0  0  0  0  0  0  0  0  0  0  0
   10.2910    6.8280   16.6030 C   0  0  0  0  0  0  0  0  0  0  0  0
  1 16  2  0  0  0  0
  1 21  1  0  0  0  0
  2  4  2  0  0  0  0
  2  6  1  0  0  0  0
  2 21  1  0  0  0  0
  3  8  1  0  0  0  0
  3 18  1  0  0  0  0
  4 23  1  0  0  0  0
  5 16  1  0  0  0  0
  5 23  2  0  0  0  0
  6 10  1  0  0  0  0
  6 15  1  0  0  0  0
  7 11  1  0  0  0  0
  7 13  1  0  0  0  0
  7 14  1  0  0  0  0
  8 19  1  0  0  0  0
  8 20  1  0  0  0  0
  9 10  2  0  0  0  0
  9 22  1  0  0  0  0
 11 15  2  0  0  0  0
 11 22  1  0  0  0  0
 12 17  1  0  0  0  0
 12 18  1  0  0  0  0
 13 17  1  0  0  0  0
 14 20  1  0  0  0  0
 17 19  1  0  0  0  0
M  END
>  <Original_Directory>
4ftc_A_rec_4ftc_h6k_lig_tt_min_0_pocket10

>  <Original_Filename>
4ftc_A_rec_4ftc_h6k_lig_tt_min_0_pocket10_gen_sample_3.sdf

>  <Molecule_ID>
sample_3

>  <logS>
-5.7913599

$$$$