/tmp/tmpozob1a_p
  MOE2022           3D

 17 21  0  0  1  0  0  0  0  0999 V2000
  -37.8210  -17.9170  -13.4970 C   0  0  3  0  0  0  0  0  0  0  0  0
  -35.6870  -20.3440  -11.6060 C   0  0  0  0  0  0  0  0  0  0  0  0
  -34.0870  -17.8300   -9.2050 C   0  0  0  0  0  0  0  0  0  0  0  0
  -38.6490  -20.1380  -12.8710 C   0  0  0  0  0  0  0  0  0  0  0  0
  -36.2440  -19.2670  -12.4110 N   0  0  0  0  0  0  0  0  0  0  0  0
  -37.3780  -19.3810  -13.3160 C   0  0  2  0  0  0  0  0  0  0  0  0
  -35.1980  -17.5160  -11.1850 C   0  0  3  0  0  0  0  0  0  0  0  0
  -34.0330  -16.5030  -11.2560 C   0  0  0  0  0  0  0  0  0  0  0  0
  -34.4620  -18.6460  -10.4460 C   0  0  3  0  0  0  0  0  0  0  0  0
  -36.5640  -17.0720  -13.2400 C   0  0  0  0  0  0  0  0  0  0  0  0
  -35.4180  -19.7550  -10.2690 N   0  0  0  0  0  0  0  0  0  0  0  0
  -35.4970  -18.0110  -12.6230 C   0  0  3  0  0  0  0  0  0  0  0  0
  -38.4470  -17.9810  -14.8980 C   0  0  0  0  0  0  0  0  0  0  0  0
  -38.5010  -19.4850  -15.2270 C   0  0  3  0  0  0  0  0  0  0  0  0
  -39.4510  -20.1510  -14.1880 C   0  0  0  0  0  0  0  0  0  0  0  0
  -37.1120  -19.9180  -14.7260 C   0  0  0  0  0  0  0  0  0  0  0  0
  -33.4110  -16.6250   -9.8640 C   0  0  0  0  0  0  0  0  0  0  0  0
  1  6  1  0  0  0  0
  1 10  1  0  0  0  0
  1 13  1  0  0  0  0
  2  5  1  0  0  0  0
  2 11  1  0  0  0  0
  3  9  1  0  0  0  0
  3 17  1  0  0  0  0
  4  6  1  0  0  0  0
  4 15  1  0  0  0  0
  5  6  1  0  0  0  0
  5 12  1  0  0  0  0
  6 16  1  0  0  0  0
  7  8  1  0  0  0  0
  7  9  1  0  0  0  0
  7 12  1  0  0  0  0
  8 17  1  0  0  0  0
  9 11  1  0  0  0  0
 10 12  1  0  0  0  0
 13 14  1  0  0  0  0
 14 15  1  0  0  0  0
 14 16  1  0  0  0  0
M  END
>  <Original_Directory>
5ap3_A_rec_2zmd_537_lig_tt_min_0_pocket10

>  <Original_Filename>
5ap3_A_rec_2zmd_537_lig_tt_min_0_pocket10_gen_sample_15.sdf

>  <Molecule_ID>
sample_15

>  <logS>
-1.54822

$$$$