/tmp/tmpjyuglso4
  MOE2022           3D

 32 36  0  0  1  0  0  0  0  0999 V2000
   10.7970  -12.9680   15.4930 C   0  0  0  0  0  0  0  0  0  0  0  0
    8.9160  -14.3510   13.5330 C   0  0  0  0  0  0  0  0  0  0  0  0
    8.9940  -14.7820    8.2400 C   0  0  0  0  0  0  0  0  0  0  0  0
   10.1050  -14.8910   11.4900 C   0  0  0  0  0  0  0  0  0  0  0  0
   16.1280   -9.9090   13.8330 C   0  0  0  0  0  0  0  0  0  0  0  0
   14.1890  -10.4950   15.1400 C   0  0  0  0  0  0  0  0  0  0  0  0
    6.6450  -14.6660   10.2530 C   0  0  0  0  0  0  0  0  0  0  0  0
   14.4560  -11.8590   14.9510 C   0  0  0  0  0  0  0  0  0  0  0  0
    9.0420  -15.1760   10.6410 C   0  0  0  0  0  0  0  0  0  0  0  0
   18.4440  -10.6840   12.5430 O   0  0  0  0  0  0  0  0  0  0  0  0
   11.5650  -13.5010   14.4600 C   0  0  0  0  0  0  0  0  0  0  0  0
   17.9770  -12.8660   12.7500 O   0  0  0  0  0  0  0  0  0  0  0  0
   13.5990  -12.8130   15.5090 N   0  0  0  0  0  0  0  0  0  0  0  0
    7.3110  -15.7310   12.2560 C   0  0  0  0  0  0  0  0  0  0  0  0
   12.9640  -12.6260   16.8090 C   0  0  0  0  0  0  0  0  0  0  0  0
    8.0040  -15.4000   13.4150 C   0  0  0  0  0  0  0  0  0  0  0  0
    7.6900  -15.1830   11.0290 C   0  0  0  0  0  0  0  0  0  0  0  0
   15.6170  -12.2320   14.2680 C   0  0  0  0  0  0  0  0  0  0  0  0
    6.7800  -14.0390    9.0340 C   0  0  0  0  0  0  0  0  0  0  0  0
   11.4720  -12.3360   16.6970 C   0  0  0  0  0  0  0  0  0  0  0  0
   16.3690  -11.2660   13.6020 C   0  0  0  0  0  0  0  0  0  0  0  0
   17.4590  -11.6550   12.6180 C   0  0  0  0  0  0  0  0  0  0  0  0
   16.7760  -11.6450   11.3310 O   0  0  0  0  0  0  0  0  0  0  0  0
    9.4310  -15.5050    9.3360 C   0  0  0  0  0  0  0  0  0  0  0  0
    8.7620  -12.6020   16.6330 N   0  0  0  0  0  0  0  0  0  0  0  0
   13.0090  -13.9040   14.7220 C   0  0  0  0  0  0  0  0  0  0  0  0
    7.8900  -13.9760    8.2190 C   0  0  0  0  0  0  0  0  0  0  0  0
   11.1470  -13.5870   13.1870 N   0  0  0  0  0  0  0  0  0  0  0  0
   10.0590  -14.2830   12.7440 C   0  0  0  0  0  0  0  0  0  0  0  0
    8.6240  -13.2960   14.4020 C   0  0  0  0  0  0  0  0  0  0  0  0
   15.0650   -9.5370   14.6530 C   0  0  0  0  0  0  0  0  0  0  0  0
    9.3980  -12.9340   15.5020 C   0  0  3  0  0  0  0  0  0  0  0  0
  1 11  2  0  0  0  0
  1 20  1  0  0  0  0
  1 32  1  0  0  0  0
  2 16  1  0  0  0  0
  2 29  1  0  0  0  0
  2 30  2  0  0  0  0
  3 24  2  0  0  0  0
  3 27  1  0  0  0  0
  4  9  2  0  0  0  0
  4 29  1  0  0  0  0
  5 21  1  0  0  0  0
  5 31  2  0  0  0  0
  6  8  2  0  0  0  0
  6 31  1  0  0  0  0
  7 17  2  0  0  0  0
  7 19  1  0  0  0  0
  8 13  1  0  0  0  0
  8 18  1  0  0  0  0
  9 17  1  0  0  0  0
  9 24  1  0  0  0  0
 10 22  1  0  0  0  0
 11 26  1  0  0  0  0
 11 28  1  0  0  0  0
 12 22  1  0  0  0  0
 13 15  1  0  0  0  0
 13 26  1  0  0  0  0
 14 16  2  0  0  0  0
 14 17  1  0  0  0  0
 15 20  1  0  0  0  0
 18 21  2  0  0  0  0
 19 27  2  0  0  0  0
 21 22  1  0  0  0  0
 22 23  1  0  0  0  0
 25 32  1  0  0  0  0
 28 29  2  0  0  0  0
 30 32  1  0  0  0  0
M  END
>  <Original_Directory>
2bxu_H_rec_2cn0_f25_lig_tt_docked_0_pocket10

>  <Original_Filename>
2bxu_H_rec_2cn0_f25_lig_tt_docked_0_pocket10_gen_sample_10.sdf

>  <Molecule_ID>
sample_10

>  <logS>
-5.0295601

$$$$