/tmp/tmpzmeltghw
  MOE2022           3D

 32 35  0  0  1  0  0  0  0  0999 V2000
   13.8020  -12.0760   14.4590 C   0  0  3  0  0  0  0  0  0  0  0  0
    8.9320  -13.6430   14.2800 C   0  0  0  0  0  0  0  0  0  0  0  0
    9.3830  -17.1110   11.2500 C   0  0  0  0  0  0  0  0  0  0  0  0
   10.9520  -13.6220   13.0070 N   0  0  0  0  0  0  0  0  0  0  0  0
    7.5360  -12.5930    9.5680 C   0  0  0  0  0  0  0  0  0  0  0  0
   16.2150  -11.7270   13.9640 C   0  0  0  0  0  0  0  0  0  0  0  0
    8.4260  -14.8760    9.2590 C   0  0  0  0  0  0  0  0  0  0  0  0
   14.6240   -9.8110   14.5500 C   0  0  0  0  0  0  0  0  0  0  0  0
    9.9300  -14.3070   13.5560 C   0  0  0  0  0  0  0  0  0  0  0  0
   17.2610  -10.9080   13.2110 C   0  0  0  0  0  0  0  0  0  0  0  0
   14.8380   -8.7730   13.6610 C   0  0  0  0  0  0  0  0  0  0  0  0
   16.6950   -9.8030   11.9690 S   0  0  0  0  0  0  0  0  0  0  0  0
   10.2640  -16.1540   11.9520 C   0  0  0  0  0  0  0  0  0  0  0  0
    8.3890  -13.5160    8.9840 C   0  0  0  0  0  0  0  0  0  0  0  0
   15.9640  -10.5690   11.0090 O   0  0  0  0  0  0  0  0  0  0  0  0
    5.9750  -14.1260   10.8200 C   0  0  0  0  0  0  0  0  0  0  0  0
   17.8450   -9.1250   11.3640 O   0  0  0  0  0  0  0  0  0  0  0  0
   11.7020  -12.5190   15.0330 C   0  0  0  0  0  0  0  0  0  0  0  0
   11.9420  -13.0900   13.8030 C   0  0  0  0  0  0  0  0  0  0  0  0
    8.2350  -12.6140   16.2850 O   0  0  0  0  0  0  0  0  0  0  0  0
   12.8810  -11.9540   15.4760 O   0  0  0  0  0  0  0  0  0  0  0  0
   10.5220  -12.5260   15.7660 C   0  0  0  0  0  0  0  0  0  0  0  0
   14.8880  -11.1640   14.3650 C   0  0  3  0  0  0  0  0  0  0  0  0
   15.6570   -8.5180   12.5990 C   0  0  0  0  0  0  0  0  0  0  0  0
    9.2460  -12.9190   15.4380 C   0  0  3  0  0  0  0  0  0  0  0  0
   13.3180  -12.9640   13.5010 C   0  0  0  0  0  0  0  0  0  0  0  0
    9.8640  -15.8150   13.3780 C   0  0  0  0  0  0  0  0  0  0  0  0
    8.1940  -16.9280   10.6870 C   0  0  0  0  0  0  0  0  0  0  0  0
    6.3440  -15.3820   10.3950 N   0  0  0  0  0  0  0  0  0  0  0  0
   16.5310  -12.8740   14.2900 O   0  0  0  0  0  0  0  0  0  0  0  0
    7.6520  -15.6720   10.1010 C   0  0  0  0  0  0  0  0  0  0  0  0
    6.5230  -12.9390   10.4830 C   0  0  0  0  0  0  0  0  0  0  0  0
  1 21  1  0  0  0  0
  1 23  1  0  0  0  0
  1 26  1  0  0  0  0
  2  9  2  0  0  0  0
  2 25  1  0  0  0  0
  3 13  1  0  0  0  0
  3 28  1  0  0  0  0
  4  9  1  0  0  0  0
  4 19  2  0  0  0  0
  5 14  2  0  0  0  0
  5 32  1  0  0  0  0
  6 10  1  0  0  0  0
  6 23  1  0  0  0  0
  6 30  2  0  0  0  0
  7 14  1  0  0  0  0
  7 31  2  0  0  0  0
  8 11  1  0  0  0  0
  8 23  1  0  0  0  0
  9 27  1  0  0  0  0
 10 12  1  0  0  0  0
 11 24  2  0  0  0  0
 12 15  2  0  0  0  0
 12 17  2  0  0  0  0
 12 24  1  0  0  0  0
 13 27  1  0  0  0  0
 16 29  2  0  0  0  0
 16 32  1  0  0  0  0
 18 19  1  0  0  0  0
 18 21  1  0  0  0  0
 18 22  2  0  0  0  0
 19 26  1  0  0  0  0
 20 25  1  0  0  0  0
 22 25  1  0  0  0  0
 28 31  1  0  0  0  0
 29 31  1  0  0  0  0
M  END
>  <Original_Directory>
2bxu_H_rec_2cn0_f25_lig_tt_docked_0_pocket10

>  <Original_Filename>
2bxu_H_rec_2cn0_f25_lig_tt_docked_0_pocket10_gen_sample_13.sdf

>  <Molecule_ID>
sample_13

>  <logS>
-3.0623

$$$$