/tmp/tmp2nrurl30
  MOE2022           3D

 11 13  0  0  1  0  0  0  0  0999 V2000
   24.0940   -0.4400   36.2450 C   0  0  3  0  0  0  0  0  0  0  0  0
   23.3370    0.2160   37.4410 C   0  0  3  0  0  0  0  0  0  0  0  0
   22.0700   -1.6150   36.4600 N   0  0  0  0  0  0  0  0  0  0  0  0
   21.9300   -0.4060   37.2960 C   0  0  0  0  0  0  0  0  0  0  0  0
   23.9340   -2.6060   37.6060 C   0  0  0  0  0  0  0  0  0  0  0  0
   26.5070    0.4100   38.8080 F   0  0  0  0  0  0  0  0  0  0  0  0
   24.1510   -0.3100   38.6460 C   0  0  3  0  0  0  0  0  0  0  0  0
   25.5830   -0.3880   36.6230 C   0  0  0  0  0  0  0  0  0  0  0  0
   23.5260   -1.8690   36.3220 C   0  0  3  0  0  0  0  0  0  0  0  0
   23.8290   -1.7900   38.8840 C   0  0  0  0  0  0  0  0  0  0  0  0
   25.6230   -0.3500   38.1360 C   0  0  3  0  0  0  0  0  0  0  0  0
  1  2  1  0  0  0  0
  1  8  1  0  0  0  0
  1  9  1  0  0  0  0
  2  4  1  0  0  0  0
  2  7  1  0  0  0  0
  3  4  1  0  0  0  0
  3  9  1  0  0  0  0
  5  9  1  0  0  0  0
  5 10  1  0  0  0  0
  6 11  1  0  0  0  0
  7 10  1  0  0  0  0
  7 11  1  0  0  0  0
  8 11  1  0  0  0  0
M  END
>  <Original_Directory>
5j4h_A_rec_4b32_03v_lig_tt_docked_5_pocket10

>  <Original_Filename>
5j4h_A_rec_4b32_03v_lig_tt_docked_5_pocket10_gen_sample_3.sdf

>  <Molecule_ID>
sample_3

>  <logS>
-0.96199

$$$$