/tmp/tmp8w57j65o
  MOE2022           3D

 13 13  0  0  1  0  0  0  0  0999 V2000
   33.4750   11.1770   40.5180 C   0  0  0  0  0  0  0  0  0  0  0  0
   32.7460   11.2250   39.3600 C   0  0  0  0  0  0  0  0  0  0  0  0
   30.0270   11.5370   40.2390 S   0  0  0  0  0  0  0  0  0  0  0  0
   30.9920   10.1360   40.2330 C   0  0  3  0  0  0  0  0  0  0  0  0
   33.4860   10.1170   41.4310 C   0  0  3  0  0  0  0  0  0  0  0  0
   31.2610    9.4790   41.4270 C   0  0  0  0  0  0  0  0  0  0  0  0
   34.8010    9.5540   41.6980 C   0  0  0  0  0  0  0  0  0  0  0  0
   29.2530   11.6590   39.0810 O   0  0  0  0  0  0  0  0  0  0  0  0
   30.2320   12.4820   41.2020 O   0  0  0  0  0  0  0  0  0  0  0  0
   35.2590    8.7880   40.8260 O   0  0  0  0  0  0  0  0  0  0  0  0
   32.4280    9.5840   42.0400 N   0  0  0  0  0  0  0  0  0  0  0  0
   35.4370    9.9350   42.6820 O   0  0  0  0  0  0  0  0  0  0  0  0
   31.8580   10.2170   39.1870 N   0  0  0  0  0  0  0  0  0  0  0  0
  1  2  2  0  0  0  0
  1  5  1  0  0  0  0
  2 13  1  0  0  0  0
  3  4  1  0  0  0  0
  3  8  1  0  0  0  0
  3  9  2  0  0  0  0
  4  6  1  0  0  0  0
  4 13  1  0  0  0  0
  5  7  1  0  0  0  0
  5 11  1  0  0  0  0
  6 11  2  0  0  0  0
  7 10  2  0  0  0  0
  7 12  1  0  0  0  0
M  END
>  <Original_Directory>
1gs5_A_rec_1oh9_nlg_lig_tt_docked_2_pocket10

>  <Original_Filename>
1gs5_A_rec_1oh9_nlg_lig_tt_docked_2_pocket10_gen_sample_3.sdf

>  <Molecule_ID>
sample_3

>  <logS>
0.047189999

$$$$