/tmp/tmpaauf5uyv
  MOE2022           3D

 13 14  0  0  1  0  0  0  0  0999 V2000
   35.5850   11.8340   41.0840 O   0  0  0  0  0  0  0  0  0  0  0  0
   35.1850   10.5810   41.7740 P   0  0  0  0  0  0  0  0  0  0  0  0
   31.5550   10.5110   39.9870 C   0  0  3  0  0  0  0  0  0  0  0  0
   32.7360    8.5000   42.6550 O   0  0  0  0  0  0  0  0  0  0  0  0
   36.1300    9.4860   41.3960 O   0  0  0  0  0  0  0  0  0  0  0  0
   30.3610   10.9170   42.0650 C   0  0  0  0  0  0  0  0  0  0  0  0
   34.9430   10.6820   43.2340 O   0  0  0  0  0  0  0  0  0  0  0  0
   33.6170   10.1020   41.0550 C   0  0  3  0  0  0  0  0  0  0  0  0
   30.5030   11.5700   39.7350 C   0  0  0  0  0  0  0  0  0  0  0  0
   29.6680   11.7100   40.9840 C   0  0  0  0  0  0  0  0  0  0  0  0
   31.2440    9.9170   41.3520 C   0  0  3  0  0  0  0  0  0  0  0  0
   32.9670   11.0950   40.1080 C   0  0  0  0  0  0  0  0  0  0  0  0
   32.5610    9.8070   42.1190 C   0  0  3  0  0  0  0  0  0  0  0  0
  1  2  2  0  0  0  0
  2  5  1  0  0  0  0
  2  7  1  0  0  0  0
  2  8  1  0  0  0  0
  3  9  1  0  0  0  0
  3 11  1  0  0  0  0
  3 12  1  0  0  0  0
  4 13  1  0  0  0  0
  6 10  1  0  0  0  0
  6 11  1  0  0  0  0
  8 12  1  0  0  0  0
  8 13  1  0  0  0  0
  9 10  1  0  0  0  0
 11 13  1  0  0  0  0
M  END
>  <Original_Directory>
1gs5_A_rec_1oh9_nlg_lig_tt_docked_2_pocket10

>  <Original_Filename>
1gs5_A_rec_1oh9_nlg_lig_tt_docked_2_pocket10_gen_sample_13.sdf

>  <Molecule_ID>
sample_13

>  <logS>
-0.60280001

$$$$