/tmp/tmpm1yt34x6
  MOE2022           3D

 34 39  0  0  1  0  0  0  0  0999 V2000
   20.1300   67.6670   19.5870 O   0  0  0  0  0  0  0  0  0  0  0  0
   24.1910   60.0580   17.5920 O   0  0  0  0  0  0  0  0  0  0  0  0
   18.7590   65.0810   21.4990 C   0  0  0  0  0  0  0  0  0  0  0  0
   21.3390   60.1410   23.3410 C   0  0  0  0  0  0  0  0  0  0  0  0
   27.6170   57.7390   22.8760 O   0  0  0  0  0  0  0  0  0  0  0  0
   27.2720   58.6630   21.9310 C   0  0  0  0  0  0  0  0  0  0  0  0
   21.0920   65.5970   20.0720 C   0  0  0  0  0  0  0  0  0  0  0  0
   21.6340   62.1780   20.9480 C   0  0  3  0  0  0  0  0  0  0  0  0
   19.1210   61.1100   24.7510 C   0  0  0  0  0  0  0  0  0  0  0  0
   20.9440   64.3990   20.7760 C   0  0  3  0  0  0  0  0  0  0  0  0
   21.2900   67.4200   21.6030 N   0  0  0  0  0  0  0  0  0  0  0  0
   24.8750   61.4690   19.3780 C   0  0  3  0  0  0  0  0  0  0  0  0
   19.7010   64.0570   21.3310 C   0  0  0  0  0  0  0  0  0  0  0  0
   18.5280   62.1870   22.5240 C   0  0  0  0  0  0  0  0  0  0  0  0
   22.4250   61.2170   20.1270 C   0  0  0  0  0  0  0  0  0  0  0  0
   27.9940   59.3540   19.6220 C   0  0  0  0  0  0  0  0  0  0  0  0
   27.9440   58.5420   20.7320 C   0  0  0  0  0  0  0  0  0  0  0  0
   26.3180   59.6210   22.2370 C   0  0  0  0  0  0  0  0  0  0  0  0
   20.4440   61.0190   22.7490 C   0  0  0  0  0  0  0  0  0  0  0  0
   22.0130   63.5160   20.9300 C   0  0  0  0  0  0  0  0  0  0  0  0
   19.2410   61.3230   23.3800 C   0  0  0  0  0  0  0  0  0  0  0  0
   19.4760   62.7090   21.6590 C   0  0  3  0  0  0  0  0  0  0  0  0
   20.5730   61.9040   21.7320 N   0  0  0  0  0  0  0  0  0  0  0  0
   19.1210   66.4070   21.3280 C   0  0  0  0  0  0  0  0  0  0  0  0
   24.9590   62.1370   17.1400 O   0  0  0  0  0  0  0  0  0  0  0  0
   25.6490   60.4290   21.3360 C   0  0  0  0  0  0  0  0  0  0  0  0
   23.8270   61.6510   20.4210 C   0  0  3  0  0  0  0  0  0  0  0  0
   20.0670   60.3140   25.3830 C   0  0  0  0  0  0  0  0  0  0  0  0
   25.9670   60.6890   20.0000 C   0  0  0  0  0  0  0  0  0  0  0  0
   24.6320   61.1820   17.9240 C   0  0  0  0  0  0  0  0  0  0  0  0
   24.3580   61.0900   21.7260 C   0  0  0  0  0  0  0  0  0  0  0  0
   27.1610   60.4170   19.3240 C   0  0  0  0  0  0  0  0  0  0  0  0
   20.3950   66.7770   20.6490 C   0  0  1  0  0  0  0  0  0  0  0  0
   21.1690   59.8420   24.6860 C   0  0  0  0  0  0  0  0  0  0  0  0
  1 33  1  0  0  0  0
  2 30  1  0  0  0  0
  3 13  2  0  0  0  0
  3 24  1  0  0  0  0
  4 19  2  0  0  0  0
  4 34  1  0  0  0  0
  5  6  1  0  0  0  0
  6 17  2  0  0  0  0
  6 18  1  0  0  0  0
  7 10  1  0  0  0  0
  7 33  1  0  0  0  0
  8 15  1  0  0  0  0
  8 20  1  0  0  0  0
  8 23  1  0  0  0  0
  9 21  2  0  0  0  0
  9 28  1  0  0  0  0
 10 13  1  0  0  0  0
 10 20  1  0  0  0  0
 11 33  1  0  0  0  0
 12 27  1  0  0  0  0
 12 29  1  0  0  0  0
 12 30  1  0  0  0  0
 13 22  1  0  0  0  0
 14 21  1  0  0  0  0
 14 22  1  0  0  0  0
 15 27  1  0  0  0  0
 16 17  1  0  0  0  0
 16 32  2  0  0  0  0
 18 26  1  0  0  0  0
 19 21  1  0  0  0  0
 19 23  1  0  0  0  0
 22 23  1  0  0  0  0
 24 33  1  0  0  0  0
 25 30  2  0  0  0  0
 26 29  2  0  0  0  0
 26 31  1  0  0  0  0
 27 31  1  0  0  0  0
 28 34  2  0  0  0  0
 29 32  1  0  0  0  0
M  END
>  <Original_Directory>
4dk5_A_rec_3l13_jzw_lig_tt_docked_0_pocket10

>  <Original_Filename>
4dk5_A_rec_3l13_jzw_lig_tt_docked_0_pocket10_gen_sample_8.sdf

>  <Molecule_ID>
sample_8

>  <logS>
-3.51208

$$$$