/tmp/tmph6a78416
  MOE2022           3D

 35 40  0  0  1  0  0  0  0  0999 V2000
  -10.9670  -26.7660    1.3440 C   0  0  3  0  0  0  0  0  0  0  0  0
  -10.2890  -15.9630    6.3570 C   0  0  3  0  0  0  0  0  0  0  0  0
   -9.0330  -24.6140    0.9120 C   0  0  0  0  0  0  0  0  0  0  0  0
   -9.3950  -20.3210    2.5530 C   0  0  0  0  0  0  0  0  0  0  0  0
  -11.4030  -28.9150    2.5500 C   0  0  0  0  0  0  0  0  0  0  0  0
  -10.1510  -23.6920    1.3820 C   0  0  3  0  0  0  0  0  0  0  0  0
   -9.4710  -25.5670   -0.1260 N   0  0  0  0  0  0  0  0  0  0  0  0
   -8.2870  -14.5060    5.1940 O   0  0  0  0  0  0  0  0  0  0  0  0
  -10.6750  -22.0220    3.2170 C   0  0  0  0  0  0  0  0  0  0  0  0
  -10.3190  -18.4960    3.6390 N   0  0  0  0  0  0  0  0  0  0  0  0
   -9.2870  -18.8450    2.6190 C   0  0  0  0  0  0  0  0  0  0  0  0
  -11.0030  -16.8690    5.4060 C   0  0  3  0  0  0  0  0  0  0  0  0
  -10.5770  -14.0680    7.8050 O   0  0  0  0  0  0  0  0  0  0  0  0
  -13.2400  -27.9500    1.3080 C   0  0  0  0  0  0  0  0  0  0  0  0
  -12.1750  -17.4470    5.8730 C   0  0  0  0  0  0  0  0  0  0  0  0
   -9.0690  -21.3950    1.7350 C   0  0  0  0  0  0  0  0  0  0  0  0
  -10.8740  -26.0660   -0.0400 C   0  0  3  0  0  0  0  0  0  0  0  0
  -11.0980  -14.6860    6.6250 C   0  0  0  0  0  0  0  0  0  0  0  0
  -11.7210  -28.1150    1.3320 C   0  0  1  0  0  0  0  0  0  0  0  0
   -7.8970  -16.9180    5.6980 O   0  0  0  0  0  0  0  0  0  0  0  0
   -8.0620  -15.2490    7.5640 O   0  0  0  0  0  0  0  0  0  0  0  0
   -9.8610  -22.4880    2.1880 C   0  0  0  0  0  0  0  0  0  0  0  0
  -11.4060  -30.2980    2.5240 C   0  0  0  0  0  0  0  0  0  0  0  0
  -11.7790  -24.8340   -0.0020 C   0  0  0  0  0  0  0  0  0  0  0  0
   -8.5300  -15.6310    6.1750 P   0  0  0  0  0  0  0  0  0  0  0  0
  -10.3590  -20.7120    3.4370 C   0  0  0  0  0  0  0  0  0  0  0  0
  -11.5340  -24.3460    1.4170 C   0  0  3  0  0  0  0  0  0  0  0  0
  -11.9480  -19.7710    4.9970 C   0  0  0  0  0  0  0  0  0  0  0  0
  -11.1280  -30.2890    0.1410 C   0  0  0  0  0  0  0  0  0  0  0  0
  -11.5770  -25.6510    2.2200 C   0  0  0  0  0  0  0  0  0  0  0  0
  -10.9060  -19.6610    4.0920 C   0  0  0  0  0  0  0  0  0  0  0  0
  -10.5580  -17.0870    3.9750 C   0  0  0  0  0  0  0  0  0  0  0  0
  -11.2860  -31.0160    1.3270 C   0  0  0  0  0  0  0  0  0  0  0  0
  -11.3160  -28.8970    0.1070 C   0  0  0  0  0  0  0  0  0  0  0  0
  -12.6160  -18.7440    5.6510 C   0  0  0  0  0  0  0  0  0  0  0  0
  1 17  1  0  0  0  0
  1 19  1  0  0  0  0
  1 30  1  0  0  0  0
  2 12  1  0  0  0  0
  2 18  1  0  0  0  0
  2 25  1  0  0  0  0
  3  6  1  0  0  0  0
  3  7  1  0  0  0  0
  4 11  1  0  0  0  0
  4 16  2  0  0  0  0
  4 26  1  0  0  0  0
  5 19  1  0  0  0  0
  5 23  1  0  0  0  0
  6 22  1  0  0  0  0
  6 27  1  0  0  0  0
  7 17  1  0  0  0  0
  8 25  2  0  0  0  0
  9 22  2  0  0  0  0
  9 26  1  0  0  0  0
 10 11  1  0  0  0  0
 10 31  1  0  0  0  0
 10 32  1  0  0  0  0
 12 15  1  0  0  0  0
 12 32  1  0  0  0  0
 13 18  1  0  0  0  0
 14 19  1  0  0  0  0
 15 35  2  0  0  0  0
 16 22  1  0  0  0  0
 17 24  1  0  0  0  0
 19 34  1  0  0  0  0
 20 25  1  0  0  0  0
 21 25  1  0  0  0  0
 23 33  2  0  0  0  0
 24 27  1  0  0  0  0
 26 31  2  0  0  0  0
 27 30  1  0  0  0  0
 28 31  1  0  0  0  0
 28 35  1  0  0  0  0
 29 33  1  0  0  0  0
 29 34  2  0  0  0  0
M  END
>  <Original_Directory>
5uwk_B_rec_3kry_3kr_lig_tt_docked_0_pocket10

>  <Original_Filename>
5uwk_B_rec_3kry_3kr_lig_tt_docked_0_pocket10_gen_sample_13.sdf

>  <Molecule_ID>
sample_13

>  <logS>
-2.82374

$$$$