
  MOE2022           3D

 33 36  0  0  1  0  0  0  0  0999 V2000
    4.4170   38.1060   30.5010 C   0  0  0  0  0  0  0  0  0  0  0  0
    9.6880   33.9490   30.5420 C   0  0  0  0  0  0  0  0  0  0  0  0
    5.6530   37.0020   25.1350 C   0  0  0  0  0  0  0  0  0  0  0  0
    8.6720   36.1290   26.5540 C   0  0  3  0  0  0  0  0  0  0  0  0
    2.4480   35.4210   24.2440 C   0  0  0  0  0  0  0  0  0  0  0  0
    3.2280   38.1300   29.9020 C   0  0  0  0  0  0  0  0  0  0  0  0
    8.7600   36.0130   28.9940 C   0  0  3  0  0  0  0  0  0  0  0  0
   10.6360   33.1260   26.6930 O   0  0  0  0  0  0  0  0  0  0  0  0
    3.4800   34.5390   23.5570 C   0  0  0  0  0  0  0  0  0  0  0  0
    9.0270   38.2920   25.1940 C   0  0  0  0  0  0  0  0  0  0  0  0
   10.4240   32.9210   30.4840 O   0  0  0  0  0  0  0  0  0  0  0  0
    3.2420   37.4270   27.4540 C   0  0  0  0  0  0  0  0  0  0  0  0
    9.7870   35.2190   26.0460 C   0  0  3  0  0  0  0  0  0  0  0  0
    2.6990   37.3460   28.7580 C   0  0  0  0  0  0  0  0  0  0  0  0
    1.6000   36.4900   28.9510 C   0  0  0  0  0  0  0  0  0  0  0  0
    8.0310   35.8980   27.7900 O   0  0  0  0  0  0  0  0  0  0  0  0
    6.7880   38.8950   30.5170 C   0  0  0  0  0  0  0  0  0  0  0  0
    3.1720   36.5030   25.0480 C   0  0  3  0  0  0  0  0  0  0  0  0
   10.3920   34.2460   27.0430 C   0  0  0  0  0  0  0  0  0  0  0  0
    9.5960   34.8000   29.2860 C   0  0  3  0  0  0  0  0  0  0  0  0
    8.5640   37.1080   29.8810 C   0  0  0  0  0  0  0  0  0  0  0  0
    2.5760   36.7300   26.4230 C   0  0  0  0  0  0  0  0  0  0  0  0
    0.8540   36.1440   27.8290 C   0  0  0  0  0  0  0  0  0  0  0  0
    9.0390   34.2740   31.5650 O   0  0  0  0  0  0  0  0  0  0  0  0
   10.6650   34.6760   28.3380 O   0  0  0  0  0  0  0  0  0  0  0  0
    4.8010   34.7920   24.2550 C   0  0  0  0  0  0  0  0  0  0  0  0
    1.2750   36.3490   26.5700 N   0  0  0  0  0  0  0  0  0  0  0  0
    8.0730   37.2230   25.7080 C   0  0  3  0  0  0  0  0  0  0  0  0
    6.9880   36.8810   24.8360 C   0  0  0  0  0  0  0  0  0  0  0  0
    7.4450   37.8820   29.8720 C   0  0  0  0  0  0  0  0  0  0  0  0
    5.4240   39.1200   30.6150 C   0  0  0  0  0  0  0  0  0  0  0  0
   10.7630   35.9710   25.3380 O   0  0  0  0  0  0  0  0  0  0  0  0
    4.6260   36.0860   25.0080 C   0  0  0  0  0  0  0  0  0  0  0  0
  1  6  1  0  0  0  0
  1 31  1  0  0  0  0
  2 11  2  0  0  0  0
  2 20  1  0  0  0  0
  2 24  1  0  0  0  0
  3 29  1  0  0  0  0
  3 33  2  0  0  0  0
  4 13  1  0  0  0  0
  4 16  1  0  0  0  0
  4 28  1  0  0  0  0
  5  9  1  0  0  0  0
  5 18  1  0  0  0  0
  6 14  1  0  0  0  0
  7 16  1  0  0  0  0
  7 20  1  0  0  0  0
  7 21  1  0  0  0  0
  8 19  2  0  0  0  0
  9 26  1  0  0  0  0
 10 28  1  0  0  0  0
 12 14  1  0  0  0  0
 12 22  2  0  0  0  0
 13 19  1  0  0  0  0
 13 32  1  0  0  0  0
 14 15  2  0  0  0  0
 15 23  1  0  0  0  0
 17 30  1  0  0  0  0
 17 31  1  0  0  0  0
 18 22  1  0  0  0  0
 18 33  1  0  0  0  0
 19 25  1  0  0  0  0
 20 25  1  0  0  0  0
 21 30  2  0  0  0  0
 22 27  1  0  0  0  0
 23 27  2  0  0  0  0
 26 33  1  0  0  0  0
 28 29  1  0  0  0  0
M  END
>  <Original_Directory>
2c4f_H_rec_5tqf_7kr_lig_tt_docked_0_pocket10

>  <Original_Filename>
2c4f_H_rec_5tqf_7kr_lig_tt_docked_0_pocket10_gen_sample_10.sdf

>  <Molecule_ID>
sample_10

>  <logS>
-4.7732201

$$$$