/tmp/tmpv8uchl7j
  MOE2022           3D

  9  9  0  0  0  0  0  0  0  0999 V2000
  121.6960    7.3480   42.5290 C   0  0  0  0  0  0  0  0  0  0  0  0
  121.5910    7.2390   40.1450 C   0  0  0  0  0  0  0  0  0  0  0  0
  119.6400    7.8330   41.3810 C   0  0  0  0  0  0  0  0  0  0  0  0
  120.4030    7.8760   42.5410 C   0  0  0  0  0  0  0  0  0  0  0  0
  120.2020    7.1720   40.2960 C   0  0  0  0  0  0  0  0  0  0  0  0
  120.0780    8.7460   43.5180 O   0  0  0  0  0  0  0  0  0  0  0  0
  119.5560    6.0930   39.7680 O   0  0  0  0  0  0  0  0  0  0  0  0
  122.3650    7.3220   41.3040 C   0  0  0  0  0  0  0  0  0  0  0  0
  121.9860    6.4020   43.4540 O   0  0  0  0  0  0  0  0  0  0  0  0
  1  4  2  0  0  0  0
  1  8  1  0  0  0  0
  1  9  1  0  0  0  0
  2  5  1  0  0  0  0
  2  8  2  0  0  0  0
  3  4  1  0  0  0  0
  3  5  2  0  0  0  0
  4  6  1  0  0  0  0
  5  7  1  0  0  0  0
M  END
>  <Original_Directory>
1ofo_A_rec_1ofo_pga_lig_tt_docked_0_pocket10

>  <Original_Filename>
1ofo_A_rec_1ofo_pga_lig_tt_docked_0_pocket10_gen_sample_3.sdf

>  <Molecule_ID>
sample_3

>  <logS>
-0.29903001

$$$$