/tmp/tmpaj94zhm7
  MOE2022           3D

 25 30  0  0  1  0  0  0  0  0999 V2000
    2.7340   18.2510   -2.0960 O   0  0  0  0  0  0  0  0  0  0  0  0
   -0.6770   20.0150   -2.4770 C   0  0  3  0  0  0  0  0  0  0  0  0
    2.9420   19.5390   -4.4230 O   0  0  0  0  0  0  0  0  0  0  0  0
    0.5040   17.4200   -1.5040 C   0  0  0  0  0  0  0  0  0  0  0  0
    4.1180   21.3300   -5.2410 O   0  0  0  0  0  0  0  0  0  0  0  0
    3.7890   23.5040   -0.7020 O   0  0  0  0  0  0  0  0  0  0  0  0
    1.8050   21.9690    0.5420 C   0  0  3  0  0  0  0  0  0  0  0  0
    2.8890   23.7370    0.3500 C   0  0  3  0  0  0  0  0  0  0  0  0
    0.4450   17.7040   -2.8890 O   0  0  0  0  0  0  0  0  0  0  0  0
    3.1850   19.8070   -1.9380 O   0  0  0  0  0  0  0  0  0  0  0  0
   -0.2020   20.9890   -1.3260 C   0  0  2  0  0  0  0  0  0  0  0  0
   -0.8390   19.6290   -0.9860 C   0  0  3  0  0  0  0  0  0  0  0  0
    1.2380   16.5910   -0.9910 O   0  0  0  0  0  0  0  0  0  0  0  0
    3.6340   18.9460   -3.0760 P   0  0  0  0  0  0  0  0  0  0  0  0
   -0.3110   18.3080   -0.7260 O   0  0  0  0  0  0  0  0  0  0  0  0
    3.1200   20.9840   -4.6040 C   0  0  0  0  0  0  0  0  0  0  0  0
    4.7110   18.0190   -3.4730 O   0  0  0  0  0  0  0  0  0  0  0  0
    1.3180   21.3630   -2.9710 O   0  0  0  0  0  0  0  0  0  0  0  0
    0.6500   22.2260   -0.4100 C   0  0  0  0  0  0  0  0  0  0  0  0
    2.3820   21.8260   -3.8140 O   0  0  0  0  0  0  0  0  0  0  0  0
    1.4060   23.3850    0.2360 C   0  0  3  0  0  0  0  0  0  0  0  0
    4.4610   21.9120    0.5340 O   0  0  0  0  0  0  0  0  0  0  0  0
   -0.1050   18.9260   -3.4150 C   0  0  0  0  0  0  0  0  0  0  0  0
    3.2090   22.4030    0.9850 C   0  0  3  0  0  0  0  0  0  0  0  0
    0.7220   22.0700   -1.8950 C   0  0  3  0  0  0  0  0  0  0  0  0
  1 10  1  0  0  0  0
  1 14  1  0  0  0  0
  2 11  1  0  0  0  0
  2 12  1  0  0  0  0
  2 23  1  0  0  0  0
  3 14  1  0  0  0  0
  3 16  1  0  0  0  0
  4  9  1  0  0  0  0
  4 13  2  0  0  0  0
  4 15  1  0  0  0  0
  5 16  2  0  0  0  0
  6  8  1  0  0  0  0
  7 19  1  0  0  0  0
  7 21  1  0  0  0  0
  7 24  1  0  0  0  0
  8 21  1  0  0  0  0
  8 24  1  0  0  0  0
  9 23  1  0  0  0  0
 10 14  1  0  0  0  0
 11 12  1  0  0  0  0
 11 19  1  0  0  0  0
 11 25  1  0  0  0  0
 12 15  1  0  0  0  0
 14 17  2  0  0  0  0
 16 20  1  0  0  0  0
 18 20  1  0  0  0  0
 18 25  1  0  0  0  0
 19 21  1  0  0  0  0
 19 25  1  0  0  0  0
 22 24  1  0  0  0  0
M  END
>  <Original_Directory>
3p76_A_rec_2ier_udp_lig_tt_min_0_pocket10

>  <Original_Filename>
3p76_A_rec_2ier_udp_lig_tt_min_0_pocket10_gen_sample_10.sdf

>  <Molecule_ID>
sample_10

>  <logS>
-1.67849

$$$$