/tmp/tmp9g2yyjf2
  MOE2022           3D

 12 13  0  0  1  0  0  0  0  0999 V2000
  -31.7150  -40.8550   63.5400 C   0  0  3  0  0  0  0  0  0  0  0  0
  -29.3560  -40.6040   62.5470 N   0  0  0  0  0  0  0  0  0  0  0  0
  -29.1940  -42.7330   61.2610 O   0  0  0  0  0  0  0  0  0  0  0  0
  -30.0770  -42.8350   63.4080 C   0  0  1  0  0  0  0  0  0  0  0  0
  -29.9650  -44.2520   62.8680 C   0  0  0  0  0  0  0  0  0  0  0  0
  -29.0190  -44.1050   61.6960 C   0  0  3  0  0  0  0  0  0  0  0  0
  -29.6380  -42.7400   64.7700 O   0  0  0  0  0  0  0  0  0  0  0  0
  -30.6090  -39.9590   62.9690 C   0  0  0  0  0  0  0  0  0  0  0  0
  -29.1140  -42.0400   62.5160 C   0  0  3  0  0  0  0  0  0  0  0  0
  -28.8920  -44.9490   60.8260 O   0  0  0  0  0  0  0  0  0  0  0  0
  -31.7110  -40.6370   64.9510 O   0  0  0  0  0  0  0  0  0  0  0  0
  -31.5150  -42.3390   63.2460 C   0  0  0  0  0  0  0  0  0  0  0  0
  1  8  1  0  0  0  0
  1 11  1  0  0  0  0
  1 12  1  0  0  0  0
  2  8  2  0  0  0  0
  2  9  1  0  0  0  0
  3  6  1  0  0  0  0
  3  9  1  0  0  0  0
  4  5  1  0  0  0  0
  4  7  1  0  0  0  0
  4  9  1  0  0  0  0
  4 12  1  0  0  0  0
  5  6  1  0  0  0  0
  6 10  1  0  0  0  0
M  END
>  <Original_Directory>
5ieq_A_rec_5ieq_1ci_lig_tt_docked_2_pocket10

>  <Original_Filename>
5ieq_A_rec_5ieq_1ci_lig_tt_docked_2_pocket10_gen_sample_11.sdf

>  <Molecule_ID>
sample_11

>  <logS>
0.28444001

$$$$