/tmp/tmp3yb2l1q4
  MOE2022           3D

 27 28  0  0  1  0  0  0  0  0999 V2000
   20.0100   33.8930   15.8690 C   0  0  0  0  0  0  0  0  0  0  0  0
   20.5870   35.7690   17.3120 C   0  0  3  0  0  0  0  0  0  0  0  0
   20.0000   36.1350   14.9310 C   0  0  3  0  0  0  0  0  0  0  0  0
   22.7010   38.1440   15.7820 O   0  0  0  0  0  0  0  0  0  0  0  0
   20.5330   34.3670   17.0980 O   0  0  0  0  0  0  0  0  0  0  0  0
   18.2320   32.3980   16.4150 O   0  0  0  0  0  0  0  0  0  0  0  0
   19.5690   32.4350   15.9580 C   0  0  3  0  0  0  0  0  0  0  0  0
   18.8520   28.3730   16.0060 C   0  0  0  0  0  0  0  0  0  0  0  0
   19.7400   31.7280   14.6160 C   0  0  0  0  0  0  0  0  0  0  0  0
   24.3600   39.9480   15.7190 O   0  0  0  0  0  0  0  0  0  0  0  0
   21.2450   25.9990   14.9750 O   0  0  0  0  0  0  0  0  0  0  0  0
   19.2690   26.3570   14.1230 O   0  0  0  0  0  0  0  0  0  0  0  0
   17.1710   30.0910   15.4810 O   0  0  0  0  0  0  0  0  0  0  0  0
   21.4980   36.0650   18.3470 O   0  0  0  0  0  0  0  0  0  0  0  0
   20.5440   29.2760   14.4960 C   0  0  0  0  0  0  0  0  0  0  0  0
   23.8760   38.8400   16.6040 P   0  0  0  0  0  0  0  0  0  0  0  0
   18.5410   29.8350   15.7770 C   0  0  3  0  0  0  0  0  0  0  0  0
   19.3740   30.2520   14.5600 C   0  0  3  0  0  0  0  0  0  0  0  0
   20.9960   36.4670   16.0280 C   0  0  3  0  0  0  0  0  0  0  0  0
   23.3360   39.2850   17.9110 O   0  0  0  0  0  0  0  0  0  0  0  0
   18.6760   36.4730   15.3240 O   0  0  0  0  0  0  0  0  0  0  0  0
   20.2330   28.1010   15.4170 C   0  0  3  0  0  0  0  0  0  0  0  0
   20.2730   26.7440   14.7490 C   0  0  0  0  0  0  0  0  0  0  0  0
   20.0070   34.6940   14.7040 N   0  0  0  0  0  0  0  0  0  0  0  0
   20.7410   38.6490   16.8890 O   0  0  0  0  0  0  0  0  0  0  0  0
   21.4080   37.8990   16.2020 C   0  0  0  0  0  0  0  0  0  0  0  0
   24.9710   37.8380   16.7470 O   0  0  0  0  0  0  0  0  0  0  0  0
  1  5  1  0  0  0  0
  1  7  1  0  0  0  0
  1 24  2  0  0  0  0
  2  5  1  0  0  0  0
  2 14  1  0  0  0  0
  2 19  1  0  0  0  0
  3 19  1  0  0  0  0
  3 21  1  0  0  0  0
  3 24  1  0  0  0  0
  4 16  1  0  0  0  0
  4 26  1  0  0  0  0
  6  7  1  0  0  0  0
  7  9  1  0  0  0  0
  8 17  1  0  0  0  0
  8 22  1  0  0  0  0
  9 18  1  0  0  0  0
 10 16  2  0  0  0  0
 11 23  1  0  0  0  0
 12 23  2  0  0  0  0
 13 17  1  0  0  0  0
 15 18  1  0  0  0  0
 15 22  1  0  0  0  0
 16 20  1  0  0  0  0
 16 27  1  0  0  0  0
 17 18  1  0  0  0  0
 19 26  1  0  0  0  0
 22 23  1  0  0  0  0
 25 26  2  0  0  0  0
M  END
>  <Original_Directory>
1kay_A_rec_1ngb_adp_lig_tt_min_0_pocket10

>  <Original_Filename>
1kay_A_rec_1ngb_adp_lig_tt_min_0_pocket10_gen_sample_12.sdf

>  <Molecule_ID>
sample_12

>  <logS>
0.61653

$$$$