/tmp/tmpgi4a13lz
  MOE2022           3D

 21 23  0  0  0  0  0  0  0  0999 V2000
  -22.5840  -31.8910   10.7040 C   0  0  0  0  0  0  0  0  0  0  0  0
  -23.2330  -33.1240   11.0110 C   0  0  0  0  0  0  0  0  0  0  0  0
  -24.4650  -32.3550    8.2020 C   0  0  0  0  0  0  0  0  0  0  0  0
  -22.6690  -29.5340    4.6110 C   0  0  0  0  0  0  0  0  0  0  0  0
  -21.5170  -31.5130   11.5060 N   0  0  0  0  0  0  0  0  0  0  0  0
  -21.7370  -30.3480    5.2120 N   0  0  0  0  0  0  0  0  0  0  0  0
  -23.1970  -27.8250    0.8740 C   0  0  0  0  0  0  0  0  0  0  0  0
  -23.4880  -31.3480    8.3660 C   0  0  0  0  0  0  0  0  0  0  0  0
  -24.1810  -33.7960   10.2430 C   0  0  0  0  0  0  0  0  0  0  0  0
  -22.5720  -27.0760    1.8960 C   0  0  0  0  0  0  0  0  0  0  0  0
  -20.4510  -27.4550    3.2820 C   0  0  0  0  0  0  0  0  0  0  0  0
  -21.8870  -30.6330    6.5340 C   0  0  0  0  0  0  0  0  0  0  0  0
  -22.7270  -29.8860    2.0780 C   0  0  0  0  0  0  0  0  0  0  0  0
  -23.1120  -29.2300    0.8960 C   0  0  0  0  0  0  0  0  0  0  0  0
  -21.8580  -27.7930    2.8750 C   0  0  0  0  0  0  0  0  0  0  0  0
  -24.0170  -29.5630    6.6310 C   0  0  0  0  0  0  0  0  0  0  0  0
  -22.4230  -29.0920    3.2010 C   0  0  0  0  0  0  0  0  0  0  0  0
  -24.8420  -33.3310    9.1240 C   0  0  0  0  0  0  0  0  0  0  0  0
  -23.1230  -30.5140    7.1780 C   0  0  0  0  0  0  0  0  0  0  0  0
  -22.9530  -31.0830    9.6180 C   0  0  0  0  0  0  0  0  0  0  0  0
  -23.8190  -29.1310    5.3130 C   0  0  0  0  0  0  0  0  0  0  0  0
  1  2  1  0  0  0  0
  1  5  1  0  0  0  0
  1 20  2  0  0  0  0
  2  9  1  0  0  0  0
  3  8  2  0  0  0  0
  3 18  1  0  0  0  0
  4  6  2  0  0  0  0
  4 17  1  0  0  0  0
  4 21  1  0  0  0  0
  6 12  1  0  0  0  0
  7 10  2  0  0  0  0
  7 14  1  0  0  0  0
  8 19  1  0  0  0  0
  8 20  1  0  0  0  0
  9 18  2  0  0  0  0
 10 15  1  0  0  0  0
 11 15  1  0  0  0  0
 12 19  2  0  0  0  0
 13 14  2  0  0  0  0
 13 17  1  0  0  0  0
 15 17  2  0  0  0  0
 16 19  1  0  0  0  0
 16 21  2  0  0  0  0
M  END
>  <Original_Directory>
1wma_A_rec_1wma_ab3_lig_tt_min_0_pocket10

>  <Original_Filename>
1wma_A_rec_1wma_ab3_lig_tt_min_0_pocket10_gen_sample_13.sdf

>  <Molecule_ID>
sample_13

>  <logS>
-4.2841201

$$$$