/tmp/tmps6u8qvy9
  MOE2022           3D

 22 26  0  0  1  0  0  0  0  0999 V2000
   13.6090   43.1210   73.3210 C   0  0  0  0  0  0  0  0  0  0  0  0
   12.7640   43.2940   75.5250 C   0  0  3  0  0  0  0  0  0  0  0  0
   14.6690   43.9590   74.0930 C   0  0  1  0  0  0  0  0  0  0  0  0
   12.2690   42.9090   74.1070 C   0  0  2  0  0  0  0  0  0  0  0  0
   17.3910   45.5170   76.7210 C   0  0  0  0  0  0  0  0  0  0  0  0
   10.2440   43.3480   76.1710 C   0  0  0  0  0  0  0  0  0  0  0  0
   17.4430   46.7050   74.3930 C   0  0  0  0  0  0  0  0  0  0  0  0
    8.8590   41.7560   75.1240 O   0  0  0  0  0  0  0  0  0  0  0  0
   17.4440   44.1850   75.9570 C   0  0  0  0  0  0  0  0  0  0  0  0
   11.6800   43.7260   76.5030 C   0  0  0  0  0  0  0  0  0  0  0  0
   11.3480   41.7130   74.5360 C   0  0  0  0  0  0  0  0  0  0  0  0
   15.9990   43.1300   74.1510 C   0  0  0  0  0  0  0  0  0  0  0  0
   11.2380   43.8000   73.3010 C   0  0  0  0  0  0  0  0  0  0  0  0
   10.0560   42.4930   74.9000 C   0  0  2  0  0  0  0  0  0  0  0  0
    9.8960   43.3550   73.7180 N   0  0  0  0  0  0  0  0  0  0  0  0
   15.1180   45.4010   73.6490 C   0  0  0  0  0  0  0  0  0  0  0  0
   16.6580   45.4850   73.8290 C   0  0  3  0  0  0  0  0  0  0  0  0
   17.1310   44.1460   74.4390 C   0  0  3  0  0  0  0  0  0  0  0  0
   18.9370   46.5460   74.0440 C   0  0  0  0  0  0  0  0  0  0  0  0
   16.9490   48.0270   73.7860 C   0  0  0  0  0  0  0  0  0  0  0  0
   14.0440   44.1260   75.5290 C   0  0  0  0  0  0  0  0  0  0  0  0
   17.3460   46.8250   75.9390 C   0  0  0  0  0  0  0  0  0  0  0  0
  1  3  1  0  0  0  0
  1  4  1  0  0  0  0
  2  4  1  0  0  0  0
  2 10  1  0  0  0  0
  2 21  1  0  0  0  0
  3 12  1  0  0  0  0
  3 16  1  0  0  0  0
  3 21  1  0  0  0  0
  4 11  1  0  0  0  0
  4 13  1  0  0  0  0
  5  9  1  0  0  0  0
  5 22  2  0  0  0  0
  6 10  2  0  0  0  0
  6 14  1  0  0  0  0
  7 17  1  0  0  0  0
  7 19  1  0  0  0  0
  7 20  1  0  0  0  0
  7 22  1  0  0  0  0
  8 14  1  0  0  0  0
  9 18  1  0  0  0  0
 11 14  1  0  0  0  0
 12 18  1  0  0  0  0
 13 15  1  0  0  0  0
 14 15  1  0  0  0  0
 16 17  1  0  0  0  0
 17 18  1  0  0  0  0
M  END
>  <Original_Directory>
2xvu_A_rec_2xw1_9nv_lig_tt_min_0_pocket10

>  <Original_Filename>
2xvu_A_rec_2xw1_9nv_lig_tt_min_0_pocket10_gen_sample_16.sdf

>  <Molecule_ID>
sample_16

>  <logS>
-5.0883899

$$$$