/tmp/tmpezpvegg6
  MOE2022           3D

 20 23  0  0  1  0  0  0  0  0999 V2000
   90.6370   28.9610   48.6490 C   0  0  0  0  0  0  0  0  0  0  0  0
   91.9790   29.4650   49.2120 C   0  0  0  0  0  0  0  0  0  0  0  0
   88.1050   27.6580   45.0620 C   0  0  0  0  0  0  0  0  0  0  0  0
   90.7970   29.2910   44.9230 C   0  0  0  0  0  0  0  0  0  0  0  0
   89.8020   33.7850   48.4210 C   0  0  0  0  0  0  0  0  0  0  0  0
   90.8710   34.8130   48.0360 C   0  0  0  0  0  0  0  0  0  0  0  0
   90.3890   32.3290   50.3880 C   0  0  0  0  0  0  0  0  0  0  0  0
   88.4520   28.9630   45.7770 C   0  0  0  0  0  0  0  0  0  0  0  0
   90.2200   26.9870   43.8850 C   0  0  0  0  0  0  0  0  0  0  0  0
   92.1740   34.2260   47.5550 C   0  0  0  0  0  0  0  0  0  0  0  0
   92.3620   30.9140   48.8950 C   0  0  0  0  0  0  0  0  0  0  0  0
   90.3030   29.6780   47.3360 C   0  0  3  0  0  0  0  0  0  0  0  0
   91.3640   31.7810   48.0910 C   0  0  1  0  0  0  0  0  0  0  0  0
   92.1970   32.7340   47.2170 C   0  0  0  0  0  0  0  0  0  0  0  0
   90.5320   30.9680   47.1890 N   0  0  0  0  0  0  0  0  0  0  0  0
   90.4820   32.5730   49.0290 C   0  0  3  0  0  0  0  0  0  0  0  0
   89.3480   26.7720   45.1330 C   0  0  3  0  0  0  0  0  0  0  0  0
   89.9430   28.8350   46.1260 C   0  0  2  0  0  0  0  0  0  0  0  0
   90.6110   28.4400   43.6560 C   0  0  0  0  0  0  0  0  0  0  0  0
   90.1070   27.3320   46.3520 C   0  0  0  0  0  0  0  0  0  0  0  0
  1  2  1  0  0  0  0
  1 12  1  0  0  0  0
  2 11  2  0  0  0  0
  3  8  1  0  0  0  0
  3 17  1  0  0  0  0
  4 18  1  0  0  0  0
  4 19  1  0  0  0  0
  5  6  1  0  0  0  0
  5 16  1  0  0  0  0
  6 10  1  0  0  0  0
  7 16  1  0  0  0  0
  8 18  1  0  0  0  0
  9 17  1  0  0  0  0
  9 19  1  0  0  0  0
 10 14  1  0  0  0  0
 11 13  1  0  0  0  0
 12 15  1  0  0  0  0
 12 18  1  0  0  0  0
 13 14  1  0  0  0  0
 13 15  1  0  0  0  0
 13 16  1  0  0  0  0
 17 20  1  0  0  0  0
 18 20  1  0  0  0  0
M  END
>  <Original_Directory>
1x7j_B_rec_1qkm_gen_lig_tt_min_0_pocket10

>  <Original_Filename>
1x7j_B_rec_1qkm_gen_lig_tt_min_0_pocket10_gen_sample_11.sdf

>  <Molecule_ID>
sample_11

>  <logS>
-4.3562899

$$$$