/tmp/tmpvp4ophnj
  MOE2022           3D

 24 27  0  0  0  0  0  0  0  0999 V2000
  -64.8650  -26.4460    1.2740 C   0  0  0  0  0  0  0  0  0  0  0  0
  -63.2450  -24.7360    1.7090 C   0  0  0  0  0  0  0  0  0  0  0  0
  -69.8990  -26.2530    2.3650 C   0  0  0  0  0  0  0  0  0  0  0  0
  -71.9360  -27.8250    3.3990 C   0  0  0  0  0  0  0  0  0  0  0  0
  -63.5550  -26.0990    1.5830 C   0  0  0  0  0  0  0  0  0  0  0  0
  -68.7420  -25.5450    5.7360 C   0  0  0  0  0  0  0  0  0  0  0  0
  -65.3210  -21.4380    3.6850 C   0  0  0  0  0  0  0  0  0  0  0  0
  -70.7650  -27.6470    4.1440 C   0  0  0  0  0  0  0  0  0  0  0  0
  -68.3330  -25.0010    3.4070 C   0  0  0  0  0  0  0  0  0  0  0  0
  -66.4170  -23.5230    2.8550 N   0  0  0  0  0  0  0  0  0  0  0  0
  -68.8190  -25.4120    2.1710 N   0  0  0  0  0  0  0  0  0  0  0  0
  -65.9050  -25.5390    1.5040 C   0  0  0  0  0  0  0  0  0  0  0  0
  -64.1120  -22.6640    0.9870 O   0  0  0  0  0  0  0  0  0  0  0  0
  -67.3580  -24.0510    3.7820 C   0  0  0  0  0  0  0  0  0  0  0  0
  -64.3100  -23.8230    1.5880 C   0  0  0  0  0  0  0  0  0  0  0  0
  -67.2870  -23.7200    5.1360 C   0  0  0  0  0  0  0  0  0  0  0  0
  -71.0450  -26.4960    1.6000 C   0  0  0  0  0  0  0  0  0  0  0  0
  -67.9860  -24.4420    6.0960 C   0  0  0  0  0  0  0  0  0  0  0  0
  -65.5960  -24.2700    1.9880 C   0  0  0  0  0  0  0  0  0  0  0  0
  -68.9450  -25.8110    4.3960 C   0  0  0  0  0  0  0  0  0  0  0  0
  -66.3550  -22.0540    2.7540 C   0  0  0  0  0  0  0  0  0  0  0  0
  -73.5370  -26.7050    1.8050 C   0  0  0  0  0  0  0  0  0  0  0  0
  -69.8950  -26.6360    3.7260 C   0  0  0  0  0  0  0  0  0  0  0  0
  -72.1460  -27.0630    2.2470 C   0  0  0  0  0  0  0  0  0  0  0  0
  1  5  2  0  0  0  0
  1 12  1  0  0  0  0
  2  5  1  0  0  0  0
  2 15  2  0  0  0  0
  3 11  1  0  0  0  0
  3 17  2  0  0  0  0
  3 23  1  0  0  0  0
  4  8  1  0  0  0  0
  4 24  2  0  0  0  0
  6 18  2  0  0  0  0
  6 20  1  0  0  0  0
  7 21  1  0  0  0  0
  8 23  2  0  0  0  0
  9 11  1  0  0  0  0
  9 14  1  0  0  0  0
  9 20  2  0  0  0  0
 10 14  1  0  0  0  0
 10 19  1  0  0  0  0
 10 21  1  0  0  0  0
 12 19  2  0  0  0  0
 13 15  1  0  0  0  0
 14 16  2  0  0  0  0
 15 19  1  0  0  0  0
 16 18  1  0  0  0  0
 17 24  1  0  0  0  0
 20 23  1  0  0  0  0
 22 24  1  0  0  0  0
M  END
>  <Original_Directory>
2h6f_B_rec_4gtp_fpp_lig_tt_docked_4_pocket10

>  <Original_Filename>
2h6f_B_rec_4gtp_fpp_lig_tt_docked_4_pocket10_gen_sample_15.sdf

>  <Molecule_ID>
sample_15

>  <logS>
-5.7119098

$$$$