/tmp/tmp7o9xhn1_
  MOE2022           3D

 32 36  0  0  1  0  0  0  0  0999 V2000
    8.1390    8.5310   20.3140 C   0  0  0  0  0  0  0  0  0  0  0  0
    6.0890    9.3260   19.1410 C   0  0  3  0  0  0  0  0  0  0  0  0
   11.9670    8.0490   15.2150 N   0  0  0  0  0  0  0  0  0  0  0  0
    4.8080    8.6330   19.2750 N   0  0  0  0  0  0  0  0  0  0  0  0
    0.2940    7.8990   20.4250 C   0  0  0  0  0  0  0  0  0  0  0  0
    7.3490    8.4950   19.1680 C   0  0  0  0  0  0  0  0  0  0  0  0
    2.5400    8.6370   19.7690 C   0  0  3  0  0  0  0  0  0  0  0  0
   -1.5360    8.6450   19.0570 C   0  0  0  0  0  0  0  0  0  0  0  0
   10.8090    7.3760   15.1900 C   0  0  0  0  0  0  0  0  0  0  0  0
    4.9210    6.5300   18.3140 O   0  0  0  0  0  0  0  0  0  0  0  0
    3.8460    9.3070   19.9810 C   0  0  0  0  0  0  0  0  0  0  0  0
   10.0990    5.0310   15.3920 C   0  0  0  0  0  0  0  0  0  0  0  0
   -0.6670    6.4240   18.7780 C   0  0  0  0  0  0  0  0  0  0  0  0
   10.7720    6.0560   14.8000 C   0  0  0  0  0  0  0  0  0  0  0  0
    7.7420    7.7290   18.1140 C   0  0  0  0  0  0  0  0  0  0  0  0
    9.1300    7.5590   20.4730 C   0  0  0  0  0  0  0  0  0  0  0  0
    8.6650    7.3680   16.2350 C   0  0  0  0  0  0  0  0  0  0  0  0
    4.2880    7.4580   18.7900 C   0  0  0  0  0  0  0  0  0  0  0  0
    9.6230    8.0230   15.5260 C   0  0  0  0  0  0  0  0  0  0  0  0
    7.5940    7.9250   16.8110 C   0  0  0  0  0  0  0  0  0  0  0  0
    9.0250    6.3430   17.0660 C   0  0  0  0  0  0  0  0  0  0  0  0
    6.1490   10.5890   17.9700 Cl  0  0  0  0  0  0  0  0  0  0  0  0
    9.3350    6.6140   19.4740 C   0  0  0  0  0  0  0  0  0  0  0  0
    0.2910    5.5610   20.7830 O   0  0  0  0  0  0  0  0  0  0  0  0
   -0.6880    8.8410   20.1460 C   0  0  0  0  0  0  0  0  0  0  0  0
   -1.3730    7.5070   18.2560 C   0  0  0  0  0  0  0  0  0  0  0  0
    0.0150    6.6020   19.9770 C   0  0  0  0  0  0  0  0  0  0  0  0
    4.0130   10.3150   20.6330 O   0  0  0  0  0  0  0  0  0  0  0  0
    8.6860    6.7660   18.2890 C   0  0  0  0  0  0  0  0  0  0  0  0
    9.4010    5.1370   16.5790 C   0  0  0  0  0  0  0  0  0  0  0  0
    1.6410    8.3270   20.9400 C   0  0  0  0  0  0  0  0  0  0  0  0
    2.9640    7.4310   19.0740 N   0  0  0  0  0  0  0  0  0  0  0  0
  1  6  2  0  0  0  0
  1 16  1  0  0  0  0
  2  4  1  0  0  0  0
  2  6  1  0  0  0  0
  2 22  1  0  0  0  0
  3  9  1  0  0  0  0
  4 11  1  0  0  0  0
  4 18  1  0  0  0  0
  5 25  2  0  0  0  0
  5 27  1  0  0  0  0
  5 31  1  0  0  0  0
  6 15  1  0  0  0  0
  7 11  1  0  0  0  0
  7 31  1  0  0  0  0
  7 32  1  0  0  0  0
  8 25  1  0  0  0  0
  8 26  2  0  0  0  0
  9 14  2  0  0  0  0
  9 19  1  0  0  0  0
 10 18  2  0  0  0  0
 11 28  2  0  0  0  0
 12 14  1  0  0  0  0
 12 30  2  0  0  0  0
 13 26  1  0  0  0  0
 13 27  2  0  0  0  0
 15 20  1  0  0  0  0
 15 29  2  0  0  0  0
 16 23  2  0  0  0  0
 17 19  1  0  0  0  0
 17 20  1  0  0  0  0
 17 21  2  0  0  0  0
 18 32  1  0  0  0  0
 21 29  1  0  0  0  0
 21 30  1  0  0  0  0
 23 29  1  0  0  0  0
 24 27  1  0  0  0  0
M  END
>  <Original_Directory>
1nvs_A_rec_2hy0_306_lig_tt_min_0_pocket10

>  <Original_Filename>
1nvs_A_rec_2hy0_306_lig_tt_min_0_pocket10_gen_sample_11.sdf

>  <Molecule_ID>
sample_11

>  <logS>
-5.71101

$$$$