/tmp/tmpw9q8smj0
  MOE2022           3D

 13 14  0  0  1  0  0  0  0  0999 V2000
  -14.3490   11.9160   41.6640 N   0  0  0  0  0  0  0  0  0  0  0  0
  -13.1450   11.5510   41.2170 C   0  0  0  0  0  0  0  0  0  0  0  0
  -15.2360   11.2690   39.5300 C   0  0  0  0  0  0  0  0  0  0  0  0
  -17.6690   11.7310   41.6110 N   0  0  0  0  0  0  0  0  0  0  0  0
  -18.7440   12.5520   41.7310 C   0  0  0  0  0  0  0  0  0  0  0  0
  -15.3680   11.8640   40.7830 C   0  0  0  0  0  0  0  0  0  0  0  0
  -18.3130   13.8450   41.5760 C   0  0  0  0  0  0  0  0  0  0  0  0
  -17.3710   10.5450   42.4160 C   0  0  0  0  0  0  0  0  0  0  0  0
  -17.0450   13.7800   40.9990 C   0  0  0  0  0  0  0  0  0  0  0  0
  -13.9750   10.9490   39.0710 C   0  0  0  0  0  0  0  0  0  0  0  0
  -11.6410   11.2520   39.3710 O   0  0  0  0  0  0  0  0  0  0  0  0
  -16.6170   12.4820   41.1400 C   0  0  3  0  0  0  0  0  0  0  0  0
  -12.8980   11.2520   39.8780 C   0  0  0  0  0  0  0  0  0  0  0  0
  1  2  1  0  0  0  0
  1  6  2  0  0  0  0
  2 13  2  0  0  0  0
  3  6  1  0  0  0  0
  3 10  2  0  0  0  0
  4  5  1  0  0  0  0
  4  8  1  0  0  0  0
  4 12  1  0  0  0  0
  5  7  1  0  0  0  0
  6 12  1  0  0  0  0
  7  9  1  0  0  0  0
  9 12  1  0  0  0  0
 10 13  1  0  0  0  0
 11 13  1  0  0  0  0
M  END
>  <Original_Directory>
4g6o_A_rec_4n0s_dhc_lig_tt_min_0_pocket10

>  <Original_Filename>
4g6o_A_rec_4n0s_dhc_lig_tt_min_0_pocket10_gen_sample_3.sdf

>  <Molecule_ID>
sample_3

>  <logS>
-0.34154001

$$$$