/tmp/tmphe9cfv_9
  MOE2022           3D

 13 14  0  0  1  0  0  0  0  0999 V2000
  -12.8730   11.5450   40.8020 C   0  0  0  0  0  0  0  0  0  0  0  0
  -16.1600   12.2140   39.7080 N   0  0  0  0  0  0  0  0  0  0  0  0
  -14.9470   11.5200   39.3420 C   0  0  2  0  0  0  0  0  0  0  0  0
  -14.0900   12.2310   38.3240 C   0  0  0  0  0  0  0  0  0  0  0  0
  -15.2620   10.2210   38.9010 O   0  0  0  0  0  0  0  0  0  0  0  0
  -17.7160   11.5660   42.7350 O   0  0  0  0  0  0  0  0  0  0  0  0
  -15.0520   12.1750   41.6010 O   0  0  0  0  0  0  0  0  0  0  0  0
  -12.1080   11.9020   39.6900 C   0  0  0  0  0  0  0  0  0  0  0  0
  -17.5400   12.3680   41.8080 C   0  0  0  0  0  0  0  0  0  0  0  0
  -14.2830   11.5000   40.6700 C   0  0  3  0  0  0  0  0  0  0  0  0
  -12.7520   12.4570   38.5620 C   0  0  0  0  0  0  0  0  0  0  0  0
  -16.2750   12.1980   41.0370 C   0  0  0  0  0  0  0  0  0  0  0  0
  -18.3190   13.2930   41.4590 O   0  0  0  0  0  0  0  0  0  0  0  0
  1  8  2  0  0  0  0
  1 10  1  0  0  0  0
  2  3  1  0  0  0  0
  2 12  2  0  0  0  0
  3  4  1  0  0  0  0
  3  5  1  0  0  0  0
  3 10  1  0  0  0  0
  4 11  2  0  0  0  0
  6  9  1  0  0  0  0
  7 10  1  0  0  0  0
  7 12  1  0  0  0  0
  8 11  1  0  0  0  0
  9 12  1  0  0  0  0
  9 13  2  0  0  0  0
M  END
>  <Original_Directory>
4g6o_A_rec_4n0s_dhc_lig_tt_min_0_pocket10

>  <Original_Filename>
4g6o_A_rec_4n0s_dhc_lig_tt_min_0_pocket10_gen_sample_13.sdf

>  <Molecule_ID>
sample_13

>  <logS>
-1.2520601

$$$$