/tmp/tmpr8bpkxw1
  MOE2022           3D

 30 34  0  0  1  0  0  0  0  0999 V2000
    1.2670   31.9630    6.7400 N   0  0  0  0  0  0  0  0  0  0  0  0
   -3.5650   31.1860    9.5840 C   0  0  0  0  0  0  0  0  0  0  0  0
   -3.9970   28.7150   12.2000 C   0  0  0  0  0  0  0  0  0  0  0  0
   -1.5420   27.1000   10.4700 N   0  0  0  0  0  0  0  0  0  0  0  0
   -3.0630   27.7410   12.1240 N   0  0  0  0  0  0  0  0  0  0  0  0
    2.6750   30.2600    7.6480 C   0  0  0  0  0  0  0  0  0  0  0  0
    4.0350   29.9180    7.8380 C   0  0  0  0  0  0  0  0  0  0  0  0
    0.5410   28.2970   10.3140 C   0  0  0  0  0  0  0  0  0  0  0  0
   -3.5550   30.1370   12.4950 C   0  0  0  0  0  0  0  0  0  0  0  0
    2.8450   27.9560    9.7560 C   0  0  0  0  0  0  0  0  0  0  0  0
    0.4450   31.7940    7.7900 C   0  0  0  0  0  0  0  0  0  0  0  0
   -5.1850   28.4830   12.0360 O   0  0  0  0  0  0  0  0  0  0  0  0
   -4.2310   31.1540   11.9120 N   0  0  0  0  0  0  0  0  0  0  0  0
   -0.5410   32.8980    8.0620 C   0  0  0  0  0  0  0  0  0  0  0  0
   -3.6120   31.7900   10.8340 C   0  0  0  0  0  0  0  0  0  0  0  0
   -2.9110   32.9750   11.0240 C   0  0  0  0  0  0  0  0  0  0  0  0
    4.6080   28.7080    8.2080 C   0  0  0  0  0  0  0  0  0  0  0  0
   -1.6910   32.5700    8.9860 C   0  0  0  0  0  0  0  0  0  0  0  0
   -0.4350   27.4430    9.7660 C   0  0  0  0  0  0  0  0  0  0  0  0
    1.6190   29.8680    8.5550 C   0  0  3  0  0  0  0  0  0  0  0  0
   -1.7730   27.6870   11.6650 C   0  0  0  0  0  0  0  0  0  0  0  0
    2.3150   31.1190    6.5650 C   0  0  0  0  0  0  0  0  0  0  0  0
   -1.8970   33.3240   10.1340 C   0  0  0  0  0  0  0  0  0  0  0  0
    4.1220   27.8880    9.2310 C   0  0  0  0  0  0  0  0  0  0  0  0
    0.4320   30.5980    8.4690 O   0  0  0  0  0  0  0  0  0  0  0  0
   -2.5700   31.5400    8.6800 C   0  0  0  0  0  0  0  0  0  0  0  0
    0.4060   28.6710   11.6560 C   0  0  0  0  0  0  0  0  0  0  0  0
    1.7070   28.7390    9.5030 C   0  0  0  0  0  0  0  0  0  0  0  0
   -0.7200   28.2730   12.3720 C   0  0  0  0  0  0  0  0  0  0  0  0
   -2.5820   30.3080   13.2140 O   0  0  0  0  0  0  0  0  0  0  0  0
  1 11  2  0  0  0  0
  1 22  1  0  0  0  0
  2 15  1  0  0  0  0
  2 26  2  0  0  0  0
  3  5  1  0  0  0  0
  3  9  1  0  0  0  0
  3 12  2  0  0  0  0
  4 19  2  0  0  0  0
  4 21  1  0  0  0  0
  5 21  1  0  0  0  0
  6  7  2  0  0  0  0
  6 20  1  0  0  0  0
  6 22  1  0  0  0  0
  7 17  1  0  0  0  0
  8 19  1  0  0  0  0
  8 27  2  0  0  0  0
  8 28  1  0  0  0  0
  9 13  1  0  0  0  0
  9 30  2  0  0  0  0
 10 24  1  0  0  0  0
 10 28  2  0  0  0  0
 11 14  1  0  0  0  0
 11 25  1  0  0  0  0
 13 15  1  0  0  0  0
 14 18  1  0  0  0  0
 15 16  2  0  0  0  0
 16 23  1  0  0  0  0
 17 24  2  0  0  0  0
 18 23  2  0  0  0  0
 18 26  1  0  0  0  0
 20 25  1  0  0  0  0
 20 28  1  0  0  0  0
 21 29  2  0  0  0  0
 27 29  1  0  0  0  0
M  END
>  <Original_Directory>
1oiy_A_rec_1gij_2pu_lig_tt_docked_1_pocket10

>  <Original_Filename>
1oiy_A_rec_1gij_2pu_lig_tt_docked_1_pocket10_gen_sample_1.sdf

>  <Molecule_ID>
sample_1

>  <logS>
-5.1312099

$$$$