/tmp/tmpzo4kdxyk
  MOE2022           3D

 27 30  0  0  1  0  0  0  0  0999 V2000
  -22.4480   23.3910  -21.9210 N   0  0  0  0  0  0  0  0  0  0  0  0
  -30.1890   20.6020  -21.2470 C   0  0  0  0  0  0  0  0  0  0  0  0
  -23.6760   23.4060  -21.4590 C   0  0  0  0  0  0  0  0  0  0  0  0
  -24.1890   22.6740  -17.8540 C   0  0  0  0  0  0  0  0  0  0  0  0
  -26.4980   23.6550  -17.4660 C   0  0  0  0  0  0  0  0  0  0  0  0
  -29.2380   22.2120  -15.5390 O   0  0  0  0  0  0  0  0  0  0  0  0
  -28.4110   23.1430  -16.1060 C   0  0  0  0  0  0  0  0  0  0  0  0
  -21.2730   22.9210  -21.4380 C   0  0  0  0  0  0  0  0  0  0  0  0
  -25.4490   23.2710  -18.3190 N   0  0  0  0  0  0  0  0  0  0  0  0
  -27.7650   21.4600  -17.8320 C   0  0  3  0  0  0  0  0  0  0  0  0
  -26.8380   20.3350  -17.4640 C   0  0  0  0  0  0  0  0  0  0  0  0
  -26.3940   23.9170  -20.3440 O   0  0  0  0  0  0  0  0  0  0  0  0
  -30.7840   20.8520  -20.0140 C   0  0  0  0  0  0  0  0  0  0  0  0
  -22.0610   22.2740  -19.1560 C   0  0  0  0  0  0  0  0  0  0  0  0
  -25.4500   23.5190  -19.6750 C   0  0  0  0  0  0  0  0  0  0  0  0
  -26.4200   24.9020  -16.8510 C   0  0  0  0  0  0  0  0  0  0  0  0
  -27.3800   25.2930  -15.9320 C   0  0  0  0  0  0  0  0  0  0  0  0
  -30.0020   21.1520  -18.9000 C   0  0  0  0  0  0  0  0  0  0  0  0
  -23.3780   22.7040  -19.1080 C   0  0  0  0  0  0  0  0  0  0  0  0
  -28.8260   20.8310  -21.4000 C   0  0  0  0  0  0  0  0  0  0  0  0
  -20.2360   23.0590  -22.1090 O   0  0  0  0  0  0  0  0  0  0  0  0
  -28.0410   21.1860  -20.3050 C   0  0  0  0  0  0  0  0  0  0  0  0
  -24.1190   23.1920  -20.1730 C   0  0  0  0  0  0  0  0  0  0  0  0
  -21.1860   22.3020  -20.1850 C   0  0  0  0  0  0  0  0  0  0  0  0
  -28.6250   21.2770  -19.0400 C   0  0  0  0  0  0  0  0  0  0  0  0
  -27.5490   22.7810  -17.1450 C   0  0  0  0  0  0  0  0  0  0  0  0
  -28.4050   24.4350  -15.5990 C   0  0  0  0  0  0  0  0  0  0  0  0
  1  3  1  0  0  0  0
  1  8  1  0  0  0  0
  2 13  2  0  0  0  0
  2 20  1  0  0  0  0
  3 23  2  0  0  0  0
  4  9  1  0  0  0  0
  4 19  2  0  0  0  0
  5  9  1  0  0  0  0
  5 16  1  0  0  0  0
  5 26  2  0  0  0  0
  6  7  1  0  0  0  0
  7 26  1  0  0  0  0
  7 27  2  0  0  0  0
  8 21  2  0  0  0  0
  8 24  1  0  0  0  0
  9 15  1  0  0  0  0
 10 11  1  0  0  0  0
 10 25  1  0  0  0  0
 10 26  1  0  0  0  0
 12 15  2  0  0  0  0
 13 18  1  0  0  0  0
 14 19  1  0  0  0  0
 14 24  2  0  0  0  0
 15 23  1  0  0  0  0
 16 17  2  0  0  0  0
 17 27  1  0  0  0  0
 18 25  2  0  0  0  0
 19 23  1  0  0  0  0
 20 22  2  0  0  0  0
 22 25  1  0  0  0  0
M  END
>  <Original_Directory>
4efu_A_rec_1uyi_puz_lig_tt_min_0_pocket10

>  <Original_Filename>
4efu_A_rec_1uyi_puz_lig_tt_min_0_pocket10_gen_sample_17.sdf

>  <Molecule_ID>
sample_17

>  <logS>
-4.9775701

$$$$