/tmp/tmpebyv02my
  MOE2022           3D

 18 18  0  0  1  0  0  0  0  0999 V2000
   41.4860   13.8350   24.5040 O   0  0  0  0  0  0  0  0  0  0  0  0
   42.4410   11.5430   24.6190 O   0  0  0  0  0  0  0  0  0  0  0  0
   38.2740    9.9510   18.8980 C   0  0  0  0  0  0  0  0  0  0  0  0
   41.1910   12.3690   24.4300 P   0  0  0  0  0  0  0  0  0  0  0  0
   36.6380    6.4320   19.1770 N   0  0  0  0  0  0  0  0  0  0  0  0
   38.4650    7.5010   18.2450 N   0  0  0  0  0  0  0  0  0  0  0  0
   40.6290   11.9520   22.9780 O   0  0  0  0  0  0  0  0  0  0  0  0
   37.9540    6.3870   18.8450 C   0  0  0  0  0  0  0  0  0  0  0  0
   40.0520    9.7190   23.4150 N   0  0  0  0  0  0  0  0  0  0  0  0
   35.6670    7.1590   18.3360 C   0  0  0  0  0  0  0  0  0  0  0  0
   40.1550   11.9670   25.4510 O   0  0  0  0  0  0  0  0  0  0  0  0
   40.1950    8.7740   19.4060 C   0  0  0  0  0  0  0  0  0  0  0  0
   40.2030    9.9680   20.1150 C   0  0  3  0  0  0  0  0  0  0  0  0
   40.4950   10.6090   22.6150 C   0  0  0  0  0  0  0  0  0  0  0  0
   41.1150   10.2970   21.2730 C   0  0  0  0  0  0  0  0  0  0  0  0
   38.5980    5.3790   19.0770 O   0  0  0  0  0  0  0  0  0  0  0  0
   38.9530    8.6890   18.7790 C   0  0  3  0  0  0  0  0  0  0  0  0
   39.1220   10.7620   19.6530 C   0  0  0  0  0  0  0  0  0  0  0  0
  1  4  2  0  0  0  0
  2  4  1  0  0  0  0
  3 17  1  0  0  0  0
  3 18  1  0  0  0  0
  4  7  1  0  0  0  0
  4 11  1  0  0  0  0
  5  8  1  0  0  0  0
  5 10  1  0  0  0  0
  6  8  1  0  0  0  0
  6 17  1  0  0  0  0
  7 14  1  0  0  0  0
  8 16  2  0  0  0  0
  9 14  2  0  0  0  0
 12 13  1  0  0  0  0
 12 17  1  0  0  0  0
 13 15  1  0  0  0  0
 13 18  1  0  0  0  0
 14 15  1  0  0  0  0
M  END
>  <Original_Directory>
1tjp_A_rec_1fuy_fip_lig_tt_min_0_pocket10

>  <Original_Filename>
1tjp_A_rec_1fuy_fip_lig_tt_min_0_pocket10_gen_sample_11.sdf

>  <Molecule_ID>
sample_11

>  <logS>
-0.36805999

$$$$