/tmp/tmpybtu1i5i
  MOE2022           3D

 10 10  0  0  1  0  0  0  0  0999 V2000
   51.4750   41.2860   46.2430 C   0  0  0  0  0  0  0  0  0  0  0  0
   54.5300   42.7860   46.4070 O   0  0  0  0  0  0  0  0  0  0  0  0
   55.0380   43.9900   46.5890 O   0  0  0  0  0  0  0  0  0  0  0  0
   51.4370   41.4980   43.1700 C   0  0  0  0  0  0  0  0  0  0  0  0
   53.3000   42.5640   44.4110 C   0  0  0  0  0  0  0  0  0  0  0  0
   52.7440   41.9060   43.3770 C   0  0  0  0  0  0  0  0  0  0  0  0
   50.4450   41.8180   44.0860 C   0  0  0  0  0  0  0  0  0  0  0  0
   50.6830   41.9420   45.4390 C   0  0  0  0  0  0  0  0  0  0  0  0
   52.8000   41.3210   46.3980 O   0  0  0  0  0  0  0  0  0  0  0  0
   53.5170   42.2270   45.7440 C   0  0  3  0  0  0  0  0  0  0  0  0
  1  8  1  0  0  0  0
  1  9  1  0  0  0  0
  2  3  1  0  0  0  0
  2 10  1  0  0  0  0
  4  6  2  0  0  0  0
  4  7  1  0  0  0  0
  5  6  1  0  0  0  0
  5 10  1  0  0  0  0
  7  8  1  0  0  0  0
  9 10  1  0  0  0  0
M  END
>  <Original_Directory>
1qqs_A_rec_3tzs_phu_lig_tt_min_0_pocket10

>  <Original_Filename>
1qqs_A_rec_3tzs_phu_lig_tt_min_0_pocket10_gen_sample_16.sdf

>  <Molecule_ID>
sample_16

>  <logS>
-0.28619999

$$$$