/tmp/tmpyj9pmcya
  MOE2022           3D

 25 27  0  0  0  0  0  0  0  0999 V2000
   36.1100  -10.6920  -20.4760 C   0  0  0  0  0  0  0  0  0  0  0  0
   35.1030   -8.8650  -19.2780 C   0  0  0  0  0  0  0  0  0  0  0  0
   36.1300   -8.4890  -21.4220 C   0  0  0  0  0  0  0  0  0  0  0  0
   36.8560   -7.6560  -22.2380 O   0  0  0  0  0  0  0  0  0  0  0  0
   32.5540  -12.0810  -23.5600 C   0  0  0  0  0  0  0  0  0  0  0  0
   33.9390  -11.9090  -23.4900 C   0  0  0  0  0  0  0  0  0  0  0  0
   30.5960   -9.5430  -21.2730 O   0  0  0  0  0  0  0  0  0  0  0  0
   36.0970   -9.8820  -21.6130 C   0  0  0  0  0  0  0  0  0  0  0  0
   36.7660  -10.9790  -23.5900 O   0  0  0  0  0  0  0  0  0  0  0  0
   33.9830   -6.3580  -19.3220 C   0  0  0  0  0  0  0  0  0  0  0  0
   30.0090  -12.0220  -24.7500 O   0  0  0  0  0  0  0  0  0  0  0  0
   35.8630  -10.4860  -22.9270 C   0  0  0  0  0  0  0  0  0  0  0  0
   35.6170  -10.1740  -19.2880 C   0  0  0  0  0  0  0  0  0  0  0  0
   34.8900   -6.6970  -20.3110 C   0  0  0  0  0  0  0  0  0  0  0  0
   35.3990   -7.9930  -20.3320 C   0  0  0  0  0  0  0  0  0  0  0  0
   34.2410   -8.4290  -18.2650 C   0  0  0  0  0  0  0  0  0  0  0  0
   32.3200   -9.8160  -22.8870 C   0  0  0  0  0  0  0  0  0  0  0  0
   31.5480   -8.8410  -22.0490 C   0  0  0  0  0  0  0  0  0  0  0  0
   33.6100   -9.5560  -23.1750 N   0  0  0  0  0  0  0  0  0  0  0  0
   31.7310  -10.9720  -23.3880 C   0  0  0  0  0  0  0  0  0  0  0  0
   30.2480  -11.1040  -23.7460 C   0  0  0  0  0  0  0  0  0  0  0  0
   34.4220  -10.6260  -23.2630 C   0  0  0  0  0  0  0  0  0  0  0  0
   33.6610   -7.2190  -18.3380 N   0  0  0  0  0  0  0  0  0  0  0  0
   29.5930  -11.6220  -22.6510 O   0  0  0  0  0  0  0  0  0  0  0  0
   29.6950   -9.9440  -24.0490 O   0  0  0  0  0  0  0  0  0  0  0  0
  1  8  2  0  0  0  0
  1 13  1  0  0  0  0
  2 13  2  0  0  0  0
  2 15  1  0  0  0  0
  2 16  1  0  0  0  0
  3  4  1  0  0  0  0
  3  8  1  0  0  0  0
  3 15  2  0  0  0  0
  5  6  1  0  0  0  0
  5 20  2  0  0  0  0
  6 22  2  0  0  0  0
  7 18  1  0  0  0  0
  8 12  1  0  0  0  0
  9 12  2  0  0  0  0
 10 14  2  0  0  0  0
 10 23  1  0  0  0  0
 11 21  1  0  0  0  0
 12 22  1  0  0  0  0
 14 15  1  0  0  0  0
 16 23  2  0  0  0  0
 17 18  1  0  0  0  0
 17 19  2  0  0  0  0
 17 20  1  0  0  0  0
 19 22  1  0  0  0  0
 20 21  1  0  0  0  0
 21 24  1  0  0  0  0
 21 25  1  0  0  0  0
M  END
>  <Original_Directory>
3fw3_B_rec_3f7u_ag4_lig_tt_min_0_pocket10

>  <Original_Filename>
3fw3_B_rec_3f7u_ag4_lig_tt_min_0_pocket10_gen_sample_6.sdf

>  <Molecule_ID>
sample_6

>  <logS>
-2.0120599

$$$$