/tmp/tmpls8scz7u
  MOE2022           3D

 20 22  0  0  1  0  0  0  0  0999 V2000
   19.5950  123.6010   43.6960 C   0  0  0  0  0  0  0  0  0  0  0  0
   28.8850  129.1230   39.2580 C   0  0  0  0  0  0  0  0  0  0  0  0
   20.9110  123.0980   43.5230 C   0  0  0  0  0  0  0  0  0  0  0  0
   24.4740  123.1050   42.5000 O   0  0  0  0  0  0  0  0  0  0  0  0
   26.1660  125.6340   40.8020 C   0  0  0  0  0  0  0  0  0  0  0  0
   26.9840  128.1210   39.5790 C   0  0  3  0  0  0  0  0  0  0  0  0
   25.5430  127.9240   39.9670 C   0  0  0  0  0  0  0  0  0  0  0  0
   23.9760  126.4670   41.3170 C   0  0  0  0  0  0  0  0  0  0  0  0
   21.1560  125.7480   41.8570 C   0  0  0  0  0  0  0  0  0  0  0  0
   23.6100  125.2160   41.8290 C   0  0  3  0  0  0  0  0  0  0  0  0
   25.9440  124.5300   41.5790 N   0  0  0  0  0  0  0  0  0  0  0  0
   24.6910  124.2330   42.0460 C   0  0  0  0  0  0  0  0  0  0  0  0
   22.2340  124.9270   42.2570 C   0  0  0  0  0  0  0  0  0  0  0  0
   28.9150  127.9880   38.4970 C   0  0  0  0  0  0  0  0  0  0  0  0
   21.9750  123.7230   42.9380 C   0  0  0  0  0  0  0  0  0  0  0  0
   27.6400  127.4590   38.5590 C   0  0  0  0  0  0  0  0  0  0  0  0
   25.2330  126.6530   40.7160 C   0  0  0  0  0  0  0  0  0  0  0  0
   19.8690  125.7280   42.3820 C   0  0  0  0  0  0  0  0  0  0  0  0
   27.8740  128.9910   40.1490 N   0  0  0  0  0  0  0  0  0  0  0  0
   19.2660  124.8770   43.2960 C   0  0  0  0  0  0  0  0  0  0  0  0
  1  3  1  0  0  0  0
  1 20  2  0  0  0  0
  2 14  1  0  0  0  0
  2 19  1  0  0  0  0
  3 15  1  0  0  0  0
  4 12  2  0  0  0  0
  5 11  1  0  0  0  0
  5 17  2  0  0  0  0
  6  7  1  0  0  0  0
  6 16  1  0  0  0  0
  6 19  1  0  0  0  0
  7 17  1  0  0  0  0
  8 10  1  0  0  0  0
  8 17  1  0  0  0  0
  9 13  1  0  0  0  0
  9 18  2  0  0  0  0
 10 12  1  0  0  0  0
 10 13  1  0  0  0  0
 11 12  1  0  0  0  0
 13 15  2  0  0  0  0
 14 16  1  0  0  0  0
 18 20  1  0  0  0  0
M  END
>  <Original_Directory>
3iny_A_rec_1rfg_gmp_lig_tt_docked_0_pocket10

>  <Original_Filename>
3iny_A_rec_1rfg_gmp_lig_tt_docked_0_pocket10_gen_sample_1.sdf

>  <Molecule_ID>
sample_1

>  <logS>
-1.90501

$$$$