/tmp/tmph5iok9w4
  MOE2022           3D

  8  8  0  0  0  0  0  0  0  0999 V2000
   33.9980   76.6230   63.6230 C   0  0  0  0  0  0  0  0  0  0  0  0
   34.2860   79.0270   63.7070 C   0  0  0  0  0  0  0  0  0  0  0  0
   32.5980   78.0930   62.2860 C   0  0  0  0  0  0  0  0  0  0  0  0
   34.6230   77.7330   64.1870 C   0  0  0  0  0  0  0  0  0  0  0  0
   31.7630   78.3740   61.3960 O   0  0  0  0  0  0  0  0  0  0  0  0
   33.1040   79.1300   63.0400 O   0  0  0  0  0  0  0  0  0  0  0  0
   34.9770   80.0370   63.8590 O   0  0  0  0  0  0  0  0  0  0  0  0
   32.9790   76.7950   62.6750 C   0  0  0  0  0  0  0  0  0  0  0  0
  1  4  2  0  0  0  0
  1  8  1  0  0  0  0
  2  4  1  0  0  0  0
  2  6  1  0  0  0  0
  2  7  2  0  0  0  0
  3  5  2  0  0  0  0
  3  6  1  0  0  0  0
  3  8  1  0  0  0  0
M  END
>  <Original_Directory>
5cbj_A_rec_5c7v_pyc_lig_tt_min_0_pocket10

>  <Original_Filename>
5cbj_A_rec_5c7v_pyc_lig_tt_min_0_pocket10_gen_sample_19.sdf

>  <Molecule_ID>
sample_19

>  <logS>
-1.24281

$$$$