/tmp/tmpdp2j5z8k
  MOE2022           3D

 31 37  0  0  1  0  0  0  0  0999 V2000
   -1.2570   36.6390   19.7480 C   0  0  0  0  0  0  0  0  0  0  0  0
   -2.2620   40.3010   16.9580 C   0  0  3  0  0  0  0  0  0  0  0  0
   -3.7500   43.6020   18.5250 C   0  0  0  0  0  0  0  0  0  0  0  0
   -3.2820   40.3210   12.8950 O   0  0  0  0  0  0  0  0  0  0  0  0
   -3.0380   41.1820   20.2760 C   0  0  0  0  0  0  0  0  0  0  0  0
   -1.6910   35.6570   17.5000 C   0  0  0  0  0  0  0  0  0  0  0  0
   -3.2250   41.3830   16.5220 C   0  0  3  0  0  0  0  0  0  0  0  0
   -4.2110   44.5200   20.8000 C   0  0  0  0  0  0  0  0  0  0  0  0
   -4.8350   45.7410   20.5630 C   0  0  0  0  0  0  0  0  0  0  0  0
   -2.9570   40.3520   14.1270 C   0  0  0  0  0  0  0  0  0  0  0  0
   -1.8370   39.0090   20.3510 N   0  0  0  0  0  0  0  0  0  0  0  0
   -3.3970   41.4950   15.0090 C   0  0  0  0  0  0  0  0  0  0  0  0
   -5.2950   46.4590   21.6630 C   0  0  0  0  0  0  0  0  0  0  0  0
   -1.5460   37.9870   19.4940 C   0  0  3  0  0  0  0  0  0  0  0  0
   -2.8770   42.6470   20.5920 C   0  0  3  0  0  0  0  0  0  0  0  0
   -0.5790   36.3750   20.8880 O   0  0  0  0  0  0  0  0  0  0  0  0
   -1.6950   38.4950   18.2260 C   0  0  0  0  0  0  0  0  0  0  0  0
   -1.7340   38.0440   16.9260 C   0  0  0  0  0  0  0  0  0  0  0  0
   -4.7760   42.9100   17.6460 C   0  0  0  0  0  0  0  0  0  0  0  0
   -2.2720   40.0720   19.6420 C   0  0  0  0  0  0  0  0  0  0  0  0
   -2.0700   39.2730   14.7150 C   0  0  0  0  0  0  0  0  0  0  0  0
   -4.0130   43.4040   19.9630 N   0  0  0  0  0  0  0  0  0  0  0  0
   -1.4890   35.6220   18.8460 C   0  0  0  0  0  0  0  0  0  0  0  0
   -4.5720   41.4530   17.2490 C   0  0  0  0  0  0  0  0  0  0  0  0
   -1.6830   36.6950   16.5900 C   0  0  0  0  0  0  0  0  0  0  0  0
   -2.5690   39.0340   16.1350 C   0  0  3  0  0  0  0  0  0  0  0  0
   -3.2510   42.7790   22.0780 C   0  0  0  0  0  0  0  0  0  0  0  0
   -2.1390   39.7760   18.3270 N   0  0  0  0  0  0  0  0  0  0  0  0
   -3.8320   44.1650   22.0920 C   0  0  0  0  0  0  0  0  0  0  0  0
   -4.2750   44.8950   23.1870 C   0  0  0  0  0  0  0  0  0  0  0  0
   -5.0880   46.0020   22.9620 C   0  0  0  0  0  0  0  0  0  0  0  0
  1 14  1  0  0  0  0
  1 16  1  0  0  0  0
  1 23  2  0  0  0  0
  2  7  1  0  0  0  0
  2 26  1  0  0  0  0
  2 28  1  0  0  0  0
  3 19  1  0  0  0  0
  3 22  1  0  0  0  0
  4 10  2  0  0  0  0
  5 15  1  0  0  0  0
  5 20  1  0  0  0  0
  6 23  1  0  0  0  0
  6 25  2  0  0  0  0
  7 12  1  0  0  0  0
  7 24  1  0  0  0  0
  8  9  2  0  0  0  0
  8 22  1  0  0  0  0
  8 29  1  0  0  0  0
  9 13  1  0  0  0  0
 10 12  1  0  0  0  0
 10 21  1  0  0  0  0
 11 14  1  0  0  0  0
 11 20  2  0  0  0  0
 13 31  2  0  0  0  0
 14 17  1  0  0  0  0
 15 22  1  0  0  0  0
 15 27  1  0  0  0  0
 17 18  2  0  0  0  0
 17 28  1  0  0  0  0
 18 25  1  0  0  0  0
 18 26  1  0  0  0  0
 19 24  1  0  0  0  0
 20 28  1  0  0  0  0
 21 26  1  0  0  0  0
 27 29  1  0  0  0  0
 29 30  2  0  0  0  0
 30 31  1  0  0  0  0
M  END
>  <Original_Directory>
3zrl_A_rec_4acc_7yg_lig_tt_min_0_pocket10

>  <Original_Filename>
3zrl_A_rec_4acc_7yg_lig_tt_min_0_pocket10_gen_sample_17.sdf

>  <Molecule_ID>
sample_17

>  <logS>
-3.88185

$$$$