/tmp/tmpjlohulj9
  MOE2022           3D

 23 26  0  0  1  0  0  0  0  0999 V2000
   51.7380   45.3620    0.8210 C   0  0  0  0  0  0  0  0  0  0  0  0
   48.3970   40.0430   -2.0290 C   0  0  3  0  0  0  0  0  0  0  0  0
   50.5410   42.4930   -0.1600 C   0  0  0  0  0  0  0  0  0  0  0  0
   46.7750   39.4060   -4.1880 C   0  0  0  0  0  0  0  0  0  0  0  0
   47.7940   41.1480   -5.3880 F   0  0  0  0  0  0  0  0  0  0  0  0
   48.9620   40.3030   -3.4210 C   0  0  3  0  0  0  0  0  0  0  0  0
   52.7080   45.3100   -1.5910 C   0  0  0  0  0  0  0  0  0  0  0  0
   51.0040   43.2250   -2.2570 O   0  0  0  0  0  0  0  0  0  0  0  0
   47.5400   38.9520   -1.9150 C   0  0  0  0  0  0  0  0  0  0  0  0
   47.7980   40.3300   -4.3590 C   0  0  0  0  0  0  0  0  0  0  0  0
   50.7280   43.7900   -0.9540 C   0  0  3  0  0  0  0  0  0  0  0  0
   55.2170   46.7400    0.8090 O   0  0  0  0  0  0  0  0  0  0  0  0
   55.1570   45.8920   -1.9280 C   0  0  0  0  0  0  0  0  0  0  0  0
   54.0720   45.5330   -0.9320 C   0  0  3  0  0  0  0  0  0  0  0  0
   49.5440   41.9570   -1.1260 N   0  0  0  0  0  0  0  0  0  0  0  0
   53.0390   45.9440    1.3170 C   0  0  0  0  0  0  0  0  0  0  0  0
   49.3400   40.5000   -0.9560 C   0  0  3  0  0  0  0  0  0  0  0  0
   46.7170   38.6410   -3.0130 C   0  0  0  0  0  0  0  0  0  0  0  0
   53.9240   46.5280    0.2290 C   0  0  3  0  0  0  0  0  0  0  0  0
   51.7280   44.7970   -0.5520 C   0  0  3  0  0  0  0  0  0  0  0  0
   48.9100   40.1720    0.3490 O   0  0  0  0  0  0  0  0  0  0  0  0
   49.6850   41.5950   -3.4440 N   0  0  0  0  0  0  0  0  0  0  0  0
   50.5320   41.8640   -2.2510 C   0  0  3  0  0  0  0  0  0  0  0  0
  1 16  1  0  0  0  0
  1 20  1  0  0  0  0
  2  6  1  0  0  0  0
  2  9  1  0  0  0  0
  2 17  1  0  0  0  0
  3 11  1  0  0  0  0
  3 15  1  0  0  0  0
  4 10  2  0  0  0  0
  4 18  1  0  0  0  0
  5 10  1  0  0  0  0
  6 10  1  0  0  0  0
  6 22  1  0  0  0  0
  7 14  1  0  0  0  0
  7 20  1  0  0  0  0
  8 11  1  0  0  0  0
  8 23  1  0  0  0  0
  9 18  2  0  0  0  0
 11 20  1  0  0  0  0
 12 19  1  0  0  0  0
 13 14  1  0  0  0  0
 14 19  1  0  0  0  0
 15 17  1  0  0  0  0
 15 23  1  0  0  0  0
 16 19  1  0  0  0  0
 17 21  1  0  0  0  0
 22 23  1  0  0  0  0
M  END
>  <Original_Directory>
2prl_A_rec_3kvl_7z5_lig_tt_min_0_pocket10

>  <Original_Filename>
2prl_A_rec_3kvl_7z5_lig_tt_min_0_pocket10_gen_sample_9.sdf

>  <Molecule_ID>
sample_9

>  <logS>
-1.14805

$$$$