/tmp/tmpjt388lrj
  MOE2022           3D

 33 38  0  0  1  0  0  0  0  0999 V2000
   22.6330   30.1860   23.5780 C   0  0  0  0  0  0  0  0  0  0  0  0
   19.3370   38.2830   27.8530 C   0  0  0  0  0  0  0  0  0  0  0  0
   25.1190   30.2050   23.7050 C   0  0  0  0  0  0  0  0  0  0  0  0
   21.8820   33.0690   24.4900 C   0  0  3  0  0  0  0  0  0  0  0  0
   17.9430   35.4170   27.6020 C   0  0  0  0  0  0  0  0  0  0  0  0
   16.2500   36.7920   28.6480 C   0  0  0  0  0  0  0  0  0  0  0  0
   20.9440   31.9880   24.2570 C   0  0  3  0  0  0  0  0  0  0  0  0
   18.5320   34.0160   26.0410 C   0  0  0  0  0  0  0  0  0  0  0  0
   18.6700   37.7350   26.5940 C   0  0  0  0  0  0  0  0  0  0  0  0
   25.1710   27.7500   24.1790 C   0  0  0  0  0  0  0  0  0  0  0  0
   18.0070   34.1110   27.2770 N   0  0  0  0  0  0  0  0  0  0  0  0
   18.5590   36.2270   26.6150 C   0  0  0  0  0  0  0  0  0  0  0  0
   17.2980   35.9330   28.7280 N   0  0  0  0  0  0  0  0  0  0  0  0
   21.8960   34.8380   26.2390 C   0  0  0  0  0  0  0  0  0  0  0  0
   24.0750   30.0170   26.9580 C   0  0  0  0  0  0  0  0  0  0  0  0
   17.7710   35.5770   29.9520 C   0  0  0  0  0  0  0  0  0  0  0  0
   19.4680   35.7880   24.2470 C   0  0  0  0  0  0  0  0  0  0  0  0
   24.3990   27.9390   25.4760 C   0  0  0  0  0  0  0  0  0  0  0  0
   23.7180   29.2900   25.6580 C   0  0  3  0  0  0  0  0  0  0  0  0
   21.5470   34.3750   24.8430 C   0  0  3  0  0  0  0  0  0  0  0  0
   19.5980   32.0400   24.7320 C   0  0  0  0  0  0  0  0  0  0  0  0
   16.2040   37.0420   31.0370 C   0  0  0  0  0  0  0  0  0  0  0  0
   23.3750   32.8330   24.4440 C   0  0  0  0  0  0  0  0  0  0  0  0
   20.8750   35.3520   23.8950 C   0  0  0  0  0  0  0  0  0  0  0  0
   23.8220   30.3060   24.5180 C   0  0  2  0  0  0  0  0  0  0  0  0
   17.2540   36.1290   31.1110 C   0  0  0  0  0  0  0  0  0  0  0  0
   21.4250   30.7450   23.6270 C   0  0  0  0  0  0  0  0  0  0  0  0
   26.0210   28.9910   23.9290 C   0  0  0  0  0  0  0  0  0  0  0  0
   18.8790   35.3490   25.5700 C   0  0  0  0  0  0  0  0  0  0  0  0
   18.6910   32.7290   25.3620 C   0  0  0  0  0  0  0  0  0  0  0  0
   23.8870   31.6610   25.2610 C   0  0  3  0  0  0  0  0  0  0  0  0
   23.4780   31.4100   26.7100 C   0  0  0  0  0  0  0  0  0  0  0  0
   15.6400   37.3090   29.7890 C   0  0  0  0  0  0  0  0  0  0  0  0
  1 25  1  0  0  0  0
  1 27  1  0  0  0  0
  2  9  1  0  0  0  0
  3 25  1  0  0  0  0
  3 28  1  0  0  0  0
  4  7  1  0  0  0  0
  4 20  1  0  0  0  0
  4 23  1  0  0  0  0
  5 11  1  0  0  0  0
  5 12  2  0  0  0  0
  5 13  1  0  0  0  0
  6 13  1  0  0  0  0
  6 33  1  0  0  0  0
  7 21  1  0  0  0  0
  7 27  1  0  0  0  0
  8 11  1  0  0  0  0
  8 29  2  0  0  0  0
  8 30  1  0  0  0  0
  9 12  1  0  0  0  0
 10 18  1  0  0  0  0
 10 28  1  0  0  0  0
 12 29  1  0  0  0  0
 13 16  1  0  0  0  0
 14 20  1  0  0  0  0
 15 19  1  0  0  0  0
 15 32  1  0  0  0  0
 16 26  2  0  0  0  0
 17 24  2  0  0  0  0
 17 29  1  0  0  0  0
 18 19  1  0  0  0  0
 19 25  1  0  0  0  0
 20 24  1  0  0  0  0
 21 30  2  0  0  0  0
 22 26  1  0  0  0  0
 22 33  2  0  0  0  0
 23 31  1  0  0  0  0
 25 31  1  0  0  0  0
 31 32  1  0  0  0  0
M  END
>  <Original_Directory>
5nti_C_rec_5x8s_6q5_lig_tt_docked_0_pocket10

>  <Original_Filename>
5nti_C_rec_5x8s_6q5_lig_tt_docked_0_pocket10_gen_sample_1.sdf

>  <Molecule_ID>
sample_1

>  <logS>
-10.22791

$$$$