/tmp/tmpphbnawzg
  MOE2022           3D

 22 25  0  0  1  0  0  0  0  0999 V2000
   52.5980  108.7030   33.6130 C   0  0  0  0  0  0  0  0  0  0  0  0
   53.8700  102.3170   42.8510 C   0  0  3  0  0  0  0  0  0  0  0  0
   52.6520  107.8290   36.2580 C   0  0  0  0  0  0  0  0  0  0  0  0
   53.3400  109.4080   34.5600 C   0  0  0  0  0  0  0  0  0  0  0  0
   52.3390  104.1330   42.8290 C   0  0  3  0  0  0  0  0  0  0  0  0
   51.9650  107.1030   35.2960 C   0  0  0  0  0  0  0  0  0  0  0  0
   51.5900  107.3990   38.5160 C   0  0  0  0  0  0  0  0  0  0  0  0
   51.6310  106.6140   39.6610 C   0  0  0  0  0  0  0  0  0  0  0  0
   52.3470  109.3230   32.4290 O   0  0  0  0  0  0  0  0  0  0  0  0
   52.9090  101.4060   43.6040 C   0  0  0  0  0  0  0  0  0  0  0  0
   51.8620  107.5950   34.0030 C   0  0  0  0  0  0  0  0  0  0  0  0
   52.3680  103.5620   41.4050 C   0  0  3  0  0  0  0  0  0  0  0  0
   53.9570  106.2550   39.3380 C   0  0  0  0  0  0  0  0  0  0  0  0
   51.7460  102.0920   44.1730 N   0  0  0  0  0  0  0  0  0  0  0  0
   51.2500  103.3280   43.5550 C   0  0  0  0  0  0  0  0  0  0  0  0
   52.7050  107.4540   37.6880 C   0  0  0  0  0  0  0  0  0  0  0  0
   53.3890  102.4430   41.4080 C   0  0  0  0  0  0  0  0  0  0  0  0
   53.4590  108.8710   35.8280 C   0  0  0  0  0  0  0  0  0  0  0  0
   52.7520  105.8080   39.8670 C   0  0  0  0  0  0  0  0  0  0  0  0
   53.9290  107.1130   38.2550 C   0  0  0  0  0  0  0  0  0  0  0  0
   53.6800  103.7180   43.4250 C   0  0  0  0  0  0  0  0  0  0  0  0
   52.6470  104.5460   40.3980 N   0  0  0  0  0  0  0  0  0  0  0  0
  1  4  1  0  0  0  0
  1  9  1  0  0  0  0
  1 11  2  0  0  0  0
  2 10  1  0  0  0  0
  2 17  1  0  0  0  0
  2 21  1  0  0  0  0
  3  6  2  0  0  0  0
  3 16  1  0  0  0  0
  3 18  1  0  0  0  0
  4 18  2  0  0  0  0
  5 12  1  0  0  0  0
  5 15  1  0  0  0  0
  5 21  1  0  0  0  0
  6 11  1  0  0  0  0
  7  8  2  0  0  0  0
  7 16  1  0  0  0  0
  8 19  1  0  0  0  0
 10 14  1  0  0  0  0
 12 17  1  0  0  0  0
 12 22  1  0  0  0  0
 13 19  2  0  0  0  0
 13 20  1  0  0  0  0
 14 15  1  0  0  0  0
 16 20  2  0  0  0  0
 19 22  1  0  0  0  0
M  END
>  <Original_Directory>
4phw_A_rec_4msc_2zt_lig_tt_min_0_pocket10

>  <Original_Filename>
4phw_A_rec_4msc_2zt_lig_tt_min_0_pocket10_gen_sample_10.sdf

>  <Molecule_ID>
sample_10

>  <logS>
-3.86659

$$$$