/tmp/tmpu4udpwhg
  MOE2022           3D

 22 24  0  0  1  0  0  0  0  0999 V2000
   53.8850  108.9290   32.6740 C   0  0  0  0  0  0  0  0  0  0  0  0
   54.5460  109.3970   35.1510 C   0  0  0  0  0  0  0  0  0  0  0  0
   52.4860  105.2080   42.6390 C   0  0  0  0  0  0  0  0  0  0  0  0
   51.9150  102.5780   41.2870 C   0  0  0  0  0  0  0  0  0  0  0  0
   53.2630  107.6270   33.1130 C   0  0  0  0  0  0  0  0  0  0  0  0
   54.6550  109.7310   33.6780 C   0  0  0  0  0  0  0  0  0  0  0  0
   54.0090  105.7760   40.7720 C   0  0  0  0  0  0  0  0  0  0  0  0
   52.2200  106.4240   39.1010 C   0  0  0  0  0  0  0  0  0  0  0  0
   51.8160  104.0250   43.3130 C   0  0  0  0  0  0  0  0  0  0  0  0
   53.7960  102.5730   42.8390 C   0  0  0  0  0  0  0  0  0  0  0  0
   53.5510  106.1110   39.3780 C   0  0  3  0  0  0  0  0  0  0  0  0
   52.5870  108.3430   37.8630 C   0  0  0  0  0  0  0  0  0  0  0  0
   52.2660  102.6570   42.7920 C   0  0  0  0  0  0  0  0  0  0  0  0
   53.4500  108.4060   35.5010 C   0  0  1  0  0  0  0  0  0  0  0  0
   54.4280  103.6080   41.9220 C   0  0  0  0  0  0  0  0  0  0  0  0
   53.5550  107.2150   34.5490 C   0  0  0  0  0  0  0  0  0  0  0  0
   54.4890  107.0500   37.3940 C   0  0  0  0  0  0  0  0  0  0  0  0
   54.4750  106.1360   38.3800 N   0  0  0  0  0  0  0  0  0  0  0  0
   53.5270  107.9300   36.9670 C   0  0  0  0  0  0  0  0  0  0  0  0
   51.7850  107.5930   38.6270 N   0  0  0  0  0  0  0  0  0  0  0  0
   52.1000  109.1170   35.2950 C   0  0  0  0  0  0  0  0  0  0  0  0
   53.6120  104.8620   41.6770 C   0  0  0  0  0  0  0  0  0  0  0  0
  1  5  1  0  0  0  0
  1  6  2  0  0  0  0
  2  6  1  0  0  0  0
  2 14  1  0  0  0  0
  3  9  1  0  0  0  0
  3 22  1  0  0  0  0
  4 13  1  0  0  0  0
  5 16  1  0  0  0  0
  7 11  1  0  0  0  0
  7 22  1  0  0  0  0
  8 11  1  0  0  0  0
  8 20  2  0  0  0  0
  9 13  1  0  0  0  0
 10 13  1  0  0  0  0
 10 15  1  0  0  0  0
 11 18  1  0  0  0  0
 12 19  2  0  0  0  0
 12 20  1  0  0  0  0
 14 16  1  0  0  0  0
 14 19  1  0  0  0  0
 14 21  1  0  0  0  0
 15 22  1  0  0  0  0
 17 18  2  0  0  0  0
 17 19  1  0  0  0  0
M  END
>  <Original_Directory>
4phw_A_rec_4msc_2zt_lig_tt_min_0_pocket10

>  <Original_Filename>
4phw_A_rec_4msc_2zt_lig_tt_min_0_pocket10_gen_sample_12.sdf

>  <Molecule_ID>
sample_12

>  <logS>
-5.62676

$$$$