/tmp/tmpa2htex1t
  MOE2022           3D

 11 12  0  0  1  0  0  0  0  0999 V2000
   -2.6690   25.6780    5.2930 C   0  0  2  0  0  0  0  0  0  0  0  0
   -3.4800   26.8950    5.1710 C   0  0  0  0  0  0  0  0  0  0  0  0
   -5.2630   25.8930    6.4730 C   0  0  0  0  0  0  0  0  0  0  0  0
   -2.2530   22.6070    7.0330 N   0  0  0  0  0  0  0  0  0  0  0  0
   -2.2230   23.9060    6.7800 C   0  0  0  0  0  0  0  0  0  0  0  0
   -4.5280   24.7390    6.7140 C   0  0  0  0  0  0  0  0  0  0  0  0
   -1.0880   24.6150    6.6860 N   0  0  0  0  0  0  0  0  0  0  0  0
   -3.2620   24.6080    6.1210 C   0  0  3  0  0  0  0  0  0  0  0  0
   -4.7350   26.9440    5.7230 C   0  0  0  0  0  0  0  0  0  0  0  0
   -1.4060   25.9330    6.1020 C   0  0  0  0  0  0  0  0  0  0  0  0
   -2.2970   25.1240    3.9060 C   0  0  0  0  0  0  0  0  0  0  0  0
  1  2  1  0  0  0  0
  1  8  1  0  0  0  0
  1 10  1  0  0  0  0
  1 11  1  0  0  0  0
  2  9  2  0  0  0  0
  3  6  2  0  0  0  0
  3  9  1  0  0  0  0
  4  5  2  0  0  0  0
  5  7  1  0  0  0  0
  5  8  1  0  0  0  0
  6  8  1  0  0  0  0
  7 10  1  0  0  0  0
M  END
>  <Original_Directory>
6pah_A_rec_5pah_ldp_lig_tt_min_0_pocket10

>  <Original_Filename>
6pah_A_rec_5pah_ldp_lig_tt_min_0_pocket10_gen_sample_1.sdf

>  <Molecule_ID>
sample_1

>  <logS>
-0.98791999

$$$$