/tmp/tmp3qvbtzjy
  MOE2022           3D

 11 12  0  0  1  0  0  0  0  0999 V2000
   -3.1690   26.3820    5.3060 C   0  0  0  0  0  0  0  0  0  0  0  0
   -2.8050   26.1520    3.9870 C   0  0  0  0  0  0  0  0  0  0  0  0
   -2.7480   22.8590    6.5500 C   0  0  0  0  0  0  0  0  0  0  0  0
   -2.9940   23.9480    5.6860 C   0  0  3  0  0  0  0  0  0  0  0  0
   -4.0870   25.4540    7.1510 O   0  0  0  0  0  0  0  0  0  0  0  0
   -1.1940   24.3070    7.6950 C   0  0  0  0  0  0  0  0  0  0  0  0
   -1.7720   23.0370    7.5510 C   0  0  0  0  0  0  0  0  0  0  0  0
   -2.8660   24.8490    3.4540 C   0  0  0  0  0  0  0  0  0  0  0  0
   -3.1110   23.7670    4.3060 C   0  0  0  0  0  0  0  0  0  0  0  0
   -2.9790   25.2900    6.2880 C   0  0  2  0  0  0  0  0  0  0  0  0
   -1.7990   25.4370    7.1470 C   0  0  0  0  0  0  0  0  0  0  0  0
  1  2  1  0  0  0  0
  1 10  1  0  0  0  0
  2  8  2  0  0  0  0
  3  4  1  0  0  0  0
  3  7  2  0  0  0  0
  4  9  1  0  0  0  0
  4 10  1  0  0  0  0
  5 10  1  0  0  0  0
  6  7  1  0  0  0  0
  6 11  2  0  0  0  0
  8  9  1  0  0  0  0
 10 11  1  0  0  0  0
M  END
>  <Original_Directory>
6pah_A_rec_5pah_ldp_lig_tt_min_0_pocket10

>  <Original_Filename>
6pah_A_rec_5pah_ldp_lig_tt_min_0_pocket10_gen_sample_17.sdf

>  <Molecule_ID>
sample_17

>  <logS>
-0.72346002

$$$$