/tmp/tmpvnc62z_p
  MOE2022           3D

 11 13  0  0  1  0  0  0  0  0999 V2000
   -1.8590   24.1320    7.1690 C   0  0  3  0  0  0  0  0  0  0  0  0
   -3.3320   24.4400    7.4790 C   0  0  3  0  0  0  0  0  0  0  0  0
   -3.9580   24.0340    5.0100 C   0  0  3  0  0  0  0  0  0  0  0  0
   -1.4360   22.7650    7.3720 N   0  0  0  0  0  0  0  0  0  0  0  0
   -2.6600   25.9060    5.7250 C   0  0  3  0  0  0  0  0  0  0  0  0
   -3.8580   25.5570    4.8200 C   0  0  0  0  0  0  0  0  0  0  0  0
   -0.4660   24.9050    5.3040 O   0  0  0  0  0  0  0  0  0  0  0  0
   -1.7810   24.6340    5.7200 C   0  0  1  0  0  0  0  0  0  0  0  0
   -2.4750   23.6010    4.8300 C   0  0  0  0  0  0  0  0  0  0  0  0
   -4.2860   23.7350    6.5000 C   0  0  0  0  0  0  0  0  0  0  0  0
   -3.3530   25.9410    7.0860 C   0  0  0  0  0  0  0  0  0  0  0  0
  1  2  1  0  0  0  0
  1  4  1  0  0  0  0
  1  8  1  0  0  0  0
  2 10  1  0  0  0  0
  2 11  1  0  0  0  0
  3  6  1  0  0  0  0
  3  9  1  0  0  0  0
  3 10  1  0  0  0  0
  5  6  1  0  0  0  0
  5  8  1  0  0  0  0
  5 11  1  0  0  0  0
  7  8  1  0  0  0  0
  8  9  1  0  0  0  0
M  END
>  <Original_Directory>
6pah_A_rec_5pah_ldp_lig_tt_min_0_pocket10

>  <Original_Filename>
6pah_A_rec_5pah_ldp_lig_tt_min_0_pocket10_gen_sample_15.sdf

>  <Molecule_ID>
sample_15

>  <logS>
-0.56195003

$$$$