/tmp/tmp5dr6_csr
  MOE2022           3D

 20 21  0  0  1  0  0  0  0  0999 V2000
   55.6680  109.6530   32.9520 C   0  0  0  0  0  0  0  0  0  0  0  0
   54.5110  105.0250   33.8790 C   0  0  0  0  0  0  0  0  0  0  0  0
   57.0730  109.9220   32.9060 O   0  0  0  0  0  0  0  0  0  0  0  0
   54.0890  106.2670   33.1090 C   0  0  3  0  0  0  0  0  0  0  0  0
   58.8240  109.6760   34.4140 O   0  0  0  0  0  0  0  0  0  0  0  0
   56.4270  106.0710   36.4980 O   0  0  0  0  0  0  0  0  0  0  0  0
   54.5490  106.3930   31.6630 C   0  0  2  0  0  0  0  0  0  0  0  0
   53.3630  106.4290   30.8580 O   0  0  0  0  0  0  0  0  0  0  0  0
   56.7370  107.3260   31.1870 C   0  0  0  0  0  0  0  0  0  0  0  0
   56.8220  105.8990   31.2250 O   0  0  0  0  0  0  0  0  0  0  0  0
   55.7880  105.1700   34.5050 O   0  0  0  0  0  0  0  0  0  0  0  0
   55.5110  105.3570   31.1570 C   0  0  3  0  0  0  0  0  0  0  0  0
   57.5670  110.1590   34.2110 O   0  0  0  0  0  0  0  0  0  0  0  0
   57.6490  105.5420   30.1620 O   0  0  0  0  0  0  0  0  0  0  0  0
   55.0510  107.4450   35.1810 C   0  0  0  0  0  0  0  0  0  0  0  0
   55.3250  107.6890   31.5630 C   0  0  3  0  0  0  0  0  0  0  0  0
   55.1900  105.1050   29.8040 O   0  0  0  0  0  0  0  0  0  0  0  0
   55.4060  108.2320   32.9110 N   0  0  0  0  0  0  0  0  0  0  0  0
   55.8860  106.2100   35.4270 C   0  0  0  0  0  0  0  0  0  0  0  0
   54.4570  107.5730   33.7920 C   0  0  3  0  0  0  0  0  0  0  0  0
  1  3  1  0  0  0  0
  1 18  1  0  0  0  0
  2  4  1  0  0  0  0
  2 11  1  0  0  0  0
  3 13  1  0  0  0  0
  4  7  1  0  0  0  0
  4 20  1  0  0  0  0
  5 13  1  0  0  0  0
  6 19  2  0  0  0  0
  7  8  1  0  0  0  0
  7 12  1  0  0  0  0
  7 16  1  0  0  0  0
  9 16  1  0  0  0  0
 10 12  1  0  0  0  0
 10 14  1  0  0  0  0
 11 19  1  0  0  0  0
 12 17  1  0  0  0  0
 15 19  1  0  0  0  0
 15 20  1  0  0  0  0
 16 18  1  0  0  0  0
 18 20  1  0  0  0  0
M  END
>  <Original_Directory>
5c29_A_rec_3lxg_z73_lig_tt_min_0_pocket10

>  <Original_Filename>
5c29_A_rec_3lxg_z73_lig_tt_min_0_pocket10_gen_sample_16.sdf

>  <Molecule_ID>
sample_16

>  <logS>
-0.01949

$$$$