/tmp/tmp_8f7wyh3
  MOE2022           3D

 10  9  0  0  1  0  0  0  0  0999 V2000
  -55.7390   17.5890  -19.2840 O   0  0  0  0  0  0  0  0  0  0  0  0
  -55.8520   14.8190  -17.7550 C   0  0  0  0  0  0  0  0  0  0  0  0
  -54.0050   14.8880  -19.5140 C   0  0  0  0  0  0  0  0  0  0  0  0
  -55.3500   15.2720  -18.9590 C   0  0  3  0  0  0  0  0  0  0  0  0
  -56.0290   16.4200  -19.6260 C   0  0  0  0  0  0  0  0  0  0  0  0
  -54.1240   12.4360  -20.0790 C   0  0  0  0  0  0  0  0  0  0  0  0
  -53.3380   11.6210  -20.6150 O   0  0  0  0  0  0  0  0  0  0  0  0
  -53.5220   13.4810  -19.1580 C   0  0  0  0  0  0  0  0  0  0  0  0
  -55.3400   12.4610  -20.3080 O   0  0  0  0  0  0  0  0  0  0  0  0
  -56.9130   16.1360  -20.4490 O   0  0  0  0  0  0  0  0  0  0  0  0
  1  5  1  0  0  0  0
  2  4  1  0  0  0  0
  3  4  1  0  0  0  0
  3  8  1  0  0  0  0
  4  5  1  0  0  0  0
  5 10  2  0  0  0  0
  6  7  2  0  0  0  0
  6  8  1  0  0  0  0
  6  9  1  0  0  0  0
M  END
>  <Original_Directory>
1xyl_B_rec_4qe1_ruu_lig_tt_min_0_pocket10

>  <Original_Filename>
1xyl_B_rec_4qe1_ruu_lig_tt_min_0_pocket10_gen_sample_3.sdf

>  <Molecule_ID>
sample_3

>  <logS>
0.25040001

$$$$