/tmp/tmpha9ie979
  MOE2022           3D

 10 11  0  0  0  0  0  0  0  0999 V2000
  -54.6230   14.6400  -19.4340 C   0  0  0  0  0  0  0  0  0  0  0  0
  -55.1470   18.7380  -19.3410 C   0  0  0  0  0  0  0  0  0  0  0  0
  -56.1330   15.4970  -20.7870 N   0  0  0  0  0  0  0  0  0  0  0  0
  -55.5550   17.9270  -20.3900 C   0  0  0  0  0  0  0  0  0  0  0  0
  -54.4960   16.8120  -18.0750 C   0  0  0  0  0  0  0  0  0  0  0  0
  -54.4410   16.2540  -16.8090 O   0  0  0  0  0  0  0  0  0  0  0  0
  -54.7290   16.0210  -19.1990 C   0  0  0  0  0  0  0  0  0  0  0  0
  -55.5790   14.3400  -20.3280 C   0  0  0  0  0  0  0  0  0  0  0  0
  -55.4970   16.5580  -20.2140 C   0  0  0  0  0  0  0  0  0  0  0  0
  -54.7190   18.1830  -18.1490 C   0  0  0  0  0  0  0  0  0  0  0  0
  1  7  1  0  0  0  0
  1  8  1  0  0  0  0
  2  4  1  0  0  0  0
  2 10  2  0  0  0  0
  3  8  1  0  0  0  0
  3  9  1  0  0  0  0
  4  9  2  0  0  0  0
  5  6  1  0  0  0  0
  5  7  2  0  0  0  0
  5 10  1  0  0  0  0
  7  9  1  0  0  0  0
M  END
>  <Original_Directory>
1xyl_B_rec_4qe1_ruu_lig_tt_min_0_pocket10

>  <Original_Filename>
1xyl_B_rec_4qe1_ruu_lig_tt_min_0_pocket10_gen_sample_7.sdf

>  <Molecule_ID>
sample_7

>  <logS>
-1.00326

$$$$