/tmp/tmpouwf7n4w
  MOE2022           3D

 27 30  0  0  1  0  0  0  0  0999 V2000
   20.2990   34.2230   14.8520 N   0  0  0  0  0  0  0  0  0  0  0  0
   24.6490   38.9300   15.7130 C   0  0  0  0  0  0  0  0  0  0  0  0
   24.3570   39.0130   17.0710 C   0  0  0  0  0  0  0  0  0  0  0  0
   23.0110   39.1510   17.4250 C   0  0  0  0  0  0  0  0  0  0  0  0
   19.7500   37.1120   17.1930 C   0  0  0  0  0  0  0  0  0  0  0  0
   18.2110   31.7650   15.4860 C   0  0  0  0  0  0  0  0  0  0  0  0
   22.6110   40.1460   18.2560 O   0  0  0  0  0  0  0  0  0  0  0  0
   17.8280   36.2970   18.4070 C   0  0  0  0  0  0  0  0  0  0  0  0
   22.3690   38.2630   15.2940 C   0  0  0  0  0  0  0  0  0  0  0  0
   20.1850   35.6640   15.1210 C   0  0  3  0  0  0  0  0  0  0  0  0
   18.3100   35.0000   18.2430 C   0  0  0  0  0  0  0  0  0  0  0  0
   19.8200   35.8370   16.5740 C   0  0  0  0  0  0  0  0  0  0  0  0
   19.1370   32.2190   14.5580 C   0  0  0  0  0  0  0  0  0  0  0  0
   20.0930   31.3340   14.0730 C   0  0  0  0  0  0  0  0  0  0  0  0
   20.7940   38.0700   17.2110 C   0  0  0  0  0  0  0  0  0  0  0  0
   19.0570   29.5330   15.2620 C   0  0  0  0  0  0  0  0  0  0  0  0
   21.5300   36.2080   14.6360 C   0  0  0  0  0  0  0  0  0  0  0  0
   16.8610   29.9070   16.1040 O   0  0  0  0  0  0  0  0  0  0  0  0
   22.0180   38.5010   16.6410 C   0  0  0  0  0  0  0  0  0  0  0  0
   20.0000   29.9760   14.3460 C   0  0  0  0  0  0  0  0  0  0  0  0
   21.4540   37.6360   14.4810 O   0  0  0  0  0  0  0  0  0  0  0  0
   18.0400   30.3960   15.6480 C   0  0  0  0  0  0  0  0  0  0  0  0
   20.5590   29.1340   13.4380 O   0  0  0  0  0  0  0  0  0  0  0  0
   18.5160   37.3660   17.8250 C   0  0  0  0  0  0  0  0  0  0  0  0
   19.3550   34.7590   17.3530 C   0  0  0  0  0  0  0  0  0  0  0  0
   19.1760   33.6370   14.0890 C   0  0  0  0  0  0  0  0  0  0  0  0
   23.6200   38.6480   14.8120 C   0  0  0  0  0  0  0  0  0  0  0  0
  1 10  1  0  0  0  0
  1 26  1  0  0  0  0
  2  3  1  0  0  0  0
  2 27  2  0  0  0  0
  3  4  2  0  0  0  0
  4  7  1  0  0  0  0
  4 19  1  0  0  0  0
  5 12  2  0  0  0  0
  5 15  1  0  0  0  0
  5 24  1  0  0  0  0
  6 13  1  0  0  0  0
  6 22  2  0  0  0  0
  8 11  1  0  0  0  0
  8 24  2  0  0  0  0
  9 19  2  0  0  0  0
  9 21  1  0  0  0  0
  9 27  1  0  0  0  0
 10 12  1  0  0  0  0
 10 17  1  0  0  0  0
 11 25  2  0  0  0  0
 12 25  1  0  0  0  0
 13 14  2  0  0  0  0
 13 26  1  0  0  0  0
 14 20  1  0  0  0  0
 15 19  1  0  0  0  0
 16 20  2  0  0  0  0
 16 22  1  0  0  0  0
 17 21  1  0  0  0  0
 18 22  1  0  0  0  0
 20 23  1  0  0  0  0
M  END
>  <Original_Directory>
4h5t_A_rec_2qwl_adp_lig_tt_min_0_pocket10

>  <Original_Filename>
4h5t_A_rec_2qwl_adp_lig_tt_min_0_pocket10_gen_sample_16.sdf

>  <Molecule_ID>
sample_16

>  <logS>
-3.8095801

$$$$