/tmp/tmp63rqq8j6
  MOE2022           3D

 13 14  0  0  1  0  0  0  0  0999 V2000
   41.0870   23.1460   -9.3460 O   0  0  0  0  0  0  0  0  0  0  0  0
   37.1490   28.1610  -10.4490 O   0  0  0  0  0  0  0  0  0  0  0  0
   37.1120   25.5200  -10.4080 C   0  0  3  0  0  0  0  0  0  0  0  0
   39.0070   23.2230   -8.0950 C   0  0  0  0  0  0  0  0  0  0  0  0
   35.0440   26.9570  -11.0300 O   0  0  0  0  0  0  0  0  0  0  0  0
   39.1880   24.3130  -10.2450 C   0  0  3  0  0  0  0  0  0  0  0  0
   37.6970   25.3750  -11.8120 C   0  0  0  0  0  0  0  0  0  0  0  0
   38.1310   25.0150   -9.4290 C   0  0  3  0  0  0  0  0  0  0  0  0
   36.2340   27.0340  -10.1270 P   0  0  0  0  0  0  0  0  0  0  0  0
   37.7760   24.0910   -8.2900 C   0  0  0  0  0  0  0  0  0  0  0  0
   35.8200   27.1200   -8.6810 O   0  0  0  0  0  0  0  0  0  0  0  0
   39.6580   23.1120   -9.4610 C   0  0  3  0  0  0  0  0  0  0  0  0
   38.7610   24.2930  -11.6850 C   0  0  0  0  0  0  0  0  0  0  0  0
  1 12  1  0  0  0  0
  2  9  1  0  0  0  0
  3  7  1  0  0  0  0
  3  8  1  0  0  0  0
  3  9  1  0  0  0  0
  4 10  1  0  0  0  0
  4 12  1  0  0  0  0
  5  9  2  0  0  0  0
  6  8  1  0  0  0  0
  6 12  1  0  0  0  0
  6 13  1  0  0  0  0
  7 13  1  0  0  0  0
  8 10  1  0  0  0  0
  9 11  1  0  0  0  0
M  END
>  <Original_Directory>
3e8z_B_rec_1r1o_sdc_lig_tt_min_0_pocket10

>  <Original_Filename>
3e8z_B_rec_1r1o_sdc_lig_tt_min_0_pocket10_gen_sample_5.sdf

>  <Molecule_ID>
sample_5

>  <logS>
0.0241

$$$$