/tmp/tmpbk0zl_jm
  MOE2022           3D

 13 13  0  0  1  0  0  0  0  0999 V2000
   37.4380   25.1150  -10.9780 C   0  0  0  0  0  0  0  0  0  0  0  0
   34.6880   27.5210  -10.9240 O   0  0  0  0  0  0  0  0  0  0  0  0
   40.1420   21.6760   -8.9270 O   0  0  0  0  0  0  0  0  0  0  0  0
   39.0300   23.2330  -10.3230 C   0  0  0  0  0  0  0  0  0  0  0  0
   36.4850   27.9700   -9.4620 C   0  0  0  0  0  0  0  0  0  0  0  0
   39.0970   22.3140   -9.1860 C   0  0  3  0  0  0  0  0  0  0  0  0
   37.4700   23.7410   -8.8300 C   0  0  0  0  0  0  0  0  0  0  0  0
   35.8630   27.7370   -8.3890 O   0  0  0  0  0  0  0  0  0  0  0  0
   37.3920   28.8060   -9.5910 O   0  0  0  0  0  0  0  0  0  0  0  0
   38.4690   23.0370   -8.1830 N   0  0  0  0  0  0  0  0  0  0  0  0
   36.0460   27.1720  -10.6710 C   0  0  3  0  0  0  0  0  0  0  0  0
   36.1490   25.6800  -10.4170 C   0  0  0  0  0  0  0  0  0  0  0  0
   37.9470   24.0320  -10.0800 C   0  0  3  0  0  0  0  0  0  0  0  0
  1 12  1  0  0  0  0
  1 13  1  0  0  0  0
  2 11  1  0  0  0  0
  3  6  1  0  0  0  0
  4  6  1  0  0  0  0
  4 13  1  0  0  0  0
  5  8  1  0  0  0  0
  5  9  2  0  0  0  0
  5 11  1  0  0  0  0
  6 10  1  0  0  0  0
  7 10  1  0  0  0  0
  7 13  1  0  0  0  0
 11 12  1  0  0  0  0
M  END
>  <Original_Directory>
3e8z_B_rec_1r1o_sdc_lig_tt_min_0_pocket10

>  <Original_Filename>
3e8z_B_rec_1r1o_sdc_lig_tt_min_0_pocket10_gen_sample_11.sdf

>  <Molecule_ID>
sample_11

>  <logS>
0.34055001

$$$$