/tmp/tmpykztchgh
  MOE2022           3D

 12 12  0  0  0  0  0  0  0  0999 V2000
   53.8060   41.6530   41.1030 C   0  0  0  0  0  0  0  0  0  0  0  0
   51.4880   42.1760   44.0430 N   0  0  0  0  0  0  0  0  0  0  0  0
   55.6850   45.9770   41.1170 O   0  0  0  0  0  0  0  0  0  0  0  0
   52.3360   42.1460   45.1100 C   0  0  0  0  0  0  0  0  0  0  0  0
   55.7580   44.7080   40.6230 O   0  0  0  0  0  0  0  0  0  0  0  0
   51.9290   41.9330   42.7810 C   0  0  0  0  0  0  0  0  0  0  0  0
   54.1330   42.2080   43.5460 C   0  0  0  0  0  0  0  0  0  0  0  0
   51.9420   42.1380   46.2780 O   0  0  0  0  0  0  0  0  0  0  0  0
   53.6640   42.2890   44.8150 N   0  0  0  0  0  0  0  0  0  0  0  0
   54.9370   42.5070   40.5730 C   0  0  0  0  0  0  0  0  0  0  0  0
   53.2890   41.9810   42.4910 C   0  0  0  0  0  0  0  0  0  0  0  0
   54.6240   43.9080   40.3240 N   0  0  0  0  0  0  0  0  0  0  0  0
  1 10  1  0  0  0  0
  1 11  1  0  0  0  0
  2  4  1  0  0  0  0
  2  6  1  0  0  0  0
  3  5  1  0  0  0  0
  4  8  2  0  0  0  0
  4  9  1  0  0  0  0
  5 12  1  0  0  0  0
  6 11  2  0  0  0  0
  7  9  2  0  0  0  0
  7 11  1  0  0  0  0
 10 12  1  0  0  0  0
M  END
>  <Original_Directory>
3pec_A_rec_5kid_7k9_lig_tt_min_0_pocket10

>  <Original_Filename>
3pec_A_rec_5kid_7k9_lig_tt_min_0_pocket10_gen_sample_3.sdf

>  <Molecule_ID>
sample_3

>  <logS>
-0.0086200004

$$$$