/tmp/tmphzd9g3x4
  MOE2022           3D

 10 11  0  0  0  0  0  0  0  0999 V2000
  -53.3010   12.6400  -20.1080 C   0  0  0  0  0  0  0  0  0  0  0  0
  -54.7060   17.0900  -19.6050 C   0  0  0  0  0  0  0  0  0  0  0  0
  -55.9870   15.1890  -20.3980 C   0  0  0  0  0  0  0  0  0  0  0  0
  -54.7290   12.9740  -20.5080 C   0  0  0  0  0  0  0  0  0  0  0  0
  -53.7380   16.2240  -19.1260 C   0  0  0  0  0  0  0  0  0  0  0  0
  -53.7280   14.9480  -19.6770 C   0  0  0  0  0  0  0  0  0  0  0  0
  -52.6570   13.9200  -19.5970 C   0  0  0  0  0  0  0  0  0  0  0  0
  -55.8420   16.5660  -20.2150 C   0  0  0  0  0  0  0  0  0  0  0  0
  -56.5370   17.4180  -21.0240 O   0  0  0  0  0  0  0  0  0  0  0  0
  -54.9550   14.3650  -19.9820 C   0  0  0  0  0  0  0  0  0  0  0  0
  1  4  1  0  0  0  0
  1  7  1  0  0  0  0
  2  5  1  0  0  0  0
  2  8  2  0  0  0  0
  3  8  1  0  0  0  0
  3 10  2  0  0  0  0
  4 10  1  0  0  0  0
  5  6  2  0  0  0  0
  6  7  1  0  0  0  0
  6 10  1  0  0  0  0
  8  9  1  0  0  0  0
M  END
>  <Original_Directory>
1mnz_A_rec_4qeh_32o_lig_tt_docked_1_pocket10

>  <Original_Filename>
1mnz_A_rec_4qeh_32o_lig_tt_docked_1_pocket10_gen_sample_17.sdf

>  <Molecule_ID>
sample_17

>  <logS>
-2.38395

$$$$