/tmp/tmpngaw9ur_
  MOE2022           3D

 27 31  0  0  1  0  0  0  0  0999 V2000
   18.1900  -16.2690  -19.1440 C   0  0  0  0  0  0  0  0  0  0  0  0
   15.8710  -16.8270  -19.5550 C   0  0  0  0  0  0  0  0  0  0  0  0
   22.4690  -17.8950  -20.5770 C   0  0  0  0  0  0  0  0  0  0  0  0
   23.8810  -19.8810  -22.9330 C   0  0  0  0  0  0  0  0  0  0  0  0
   19.8190  -16.2910  -21.1580 C   0  0  0  0  0  0  0  0  0  0  0  0
   19.3800  -18.5220  -22.1610 C   0  0  0  0  0  0  0  0  0  0  0  0
   19.2580  -15.9220  -18.1400 C   0  0  3  0  0  0  0  0  0  0  0  0
   18.6220  -13.2510  -15.6200 O   0  0  0  0  0  0  0  0  0  0  0  0
   21.3430  -19.3380  -22.3960 C   0  0  0  0  0  0  0  0  0  0  0  0
   19.1460  -14.4220  -16.2150 C   0  0  3  0  0  0  0  0  0  0  0  0
   17.5580  -17.3490  -21.1900 C   0  0  0  0  0  0  0  0  0  0  0  0
   21.4220  -18.2430  -21.5240 C   0  0  3  0  0  0  0  0  0  0  0  0
   17.7100  -15.9770  -15.0020 O   0  0  0  0  0  0  0  0  0  0  0  0
   18.5290  -15.7390  -15.8760 C   0  0  0  0  0  0  0  0  0  0  0  0
   18.4880  -16.5800  -20.4700 C   0  0  0  0  0  0  0  0  0  0  0  0
   22.3910  -20.2030  -23.0020 C   0  0  0  0  0  0  0  0  0  0  0  0
   24.1680  -19.3760  -24.2150 O   0  0  0  0  0  0  0  0  0  0  0  0
   20.0500  -19.5770  -22.6430 N   0  0  0  0  0  0  0  0  0  0  0  0
   19.2360  -14.4500  -17.7360 C   0  0  0  0  0  0  0  0  0  0  0  0
   16.2090  -17.3070  -20.8020 C   0  0  0  0  0  0  0  0  0  0  0  0
   24.3450  -18.8560  -21.9690 C   0  0  0  0  0  0  0  0  0  0  0  0
   23.7850  -18.2240  -20.9140 C   0  0  0  0  0  0  0  0  0  0  0  0
   24.5380  -21.0900  -22.6610 O   0  0  0  0  0  0  0  0  0  0  0  0
   16.8680  -16.3670  -18.7150 C   0  0  0  0  0  0  0  0  0  0  0  0
   19.0740  -16.7340  -16.8650 C   0  0  0  0  0  0  0  0  0  0  0  0
   18.0050  -18.4180  -21.9920 C   0  0  0  0  0  0  0  0  0  0  0  0
   20.2400  -17.6240  -21.6440 N   0  0  0  0  0  0  0  0  0  0  0  0
  1  7  1  0  0  0  0
  1 15  2  0  0  0  0
  1 24  1  0  0  0  0
  2 20  1  0  0  0  0
  2 24  2  0  0  0  0
  3 12  1  0  0  0  0
  3 22  2  0  0  0  0
  4 16  1  0  0  0  0
  4 17  1  0  0  0  0
  4 21  1  0  0  0  0
  4 23  1  0  0  0  0
  5 15  1  0  0  0  0
  5 27  1  0  0  0  0
  6 18  1  0  0  0  0
  6 26  2  0  0  0  0
  6 27  1  0  0  0  0
  7 19  1  0  0  0  0
  7 25  1  0  0  0  0
  8 10  1  0  0  0  0
  9 12  1  0  0  0  0
  9 16  2  0  0  0  0
  9 18  1  0  0  0  0
 10 14  1  0  0  0  0
 10 19  1  0  0  0  0
 11 15  1  0  0  0  0
 11 20  2  0  0  0  0
 11 26  1  0  0  0  0
 12 27  1  0  0  0  0
 13 14  2  0  0  0  0
 14 25  1  0  0  0  0
 21 22  1  0  0  0  0
M  END
>  <Original_Directory>
5u69_A_rec_5u69_lqd_lig_tt_docked_0_pocket10

>  <Original_Filename>
5u69_A_rec_5u69_lqd_lig_tt_docked_0_pocket10_gen_sample_14.sdf

>  <Molecule_ID>
sample_14

>  <logS>
-2.9516001

$$$$