/tmp/tmp189oguj1
  MOE2022           3D

 20 23  0  0  1  0  0  0  0  0999 V2000
    3.4290   29.7320   38.7140 C   0  0  3  0  0  0  0  0  0  0  0  0
    1.1390   26.1580   37.2370 C   0  0  0  0  0  0  0  0  0  0  0  0
    4.5390   29.9080   37.6710 C   0  0  0  0  0  0  0  0  0  0  0  0
    2.4870   30.9490   38.4570 C   0  0  0  0  0  0  0  0  0  0  0  0
    1.5320   27.2100   36.3890 C   0  0  0  0  0  0  0  0  0  0  0  0
    1.3320   26.9880   35.0170 C   0  0  0  0  0  0  0  0  0  0  0  0
    2.1070   23.3920   34.9270 C   0  0  0  0  0  0  0  0  0  0  0  0
    3.7570   30.4070   36.4280 C   0  0  3  0  0  0  0  0  0  0  0  0
    2.3710   28.3010   36.8550 C   0  0  0  0  0  0  0  0  0  0  0  0
    2.6360   31.3330   36.9900 C   0  0  0  0  0  0  0  0  0  0  0  0
    1.5400   24.8840   36.8110 C   0  0  0  0  0  0  0  0  0  0  0  0
    1.1500   21.8650   36.5460 C   0  0  0  0  0  0  0  0  0  0  0  0
    2.6090   28.4710   38.3440 C   0  0  0  0  0  0  0  0  0  0  0  0
    1.7140   24.6440   35.4400 C   0  0  0  0  0  0  0  0  0  0  0  0
    1.5200   22.1720   35.2560 C   0  0  0  0  0  0  0  0  0  0  0  0
    1.6680   22.5430   37.6380 C   0  0  0  0  0  0  0  0  0  0  0  0
    1.5390   25.6940   34.5260 C   0  0  0  0  0  0  0  0  0  0  0  0
    1.7760   23.9020   37.7660 C   0  0  0  0  0  0  0  0  0  0  0  0
    3.1760   23.3710   34.0840 O   0  0  0  0  0  0  0  0  0  0  0  0
    3.0380   29.1860   35.8320 C   0  0  0  0  0  0  0  0  0  0  0  0
  1  3  1  0  0  0  0
  1  4  1  0  0  0  0
  1 13  1  0  0  0  0
  2  5  1  0  0  0  0
  2 11  1  0  0  0  0
  3  8  1  0  0  0  0
  4 10  1  0  0  0  0
  5  6  1  0  0  0  0
  5  9  2  0  0  0  0
  6 17  1  0  0  0  0
  7 14  1  0  0  0  0
  7 15  2  0  0  0  0
  7 19  1  0  0  0  0
  8 10  1  0  0  0  0
  8 20  1  0  0  0  0
  9 13  1  0  0  0  0
  9 20  1  0  0  0  0
 11 14  1  0  0  0  0
 11 18  2  0  0  0  0
 12 15  1  0  0  0  0
 12 16  2  0  0  0  0
 14 17  2  0  0  0  0
 16 18  1  0  0  0  0
M  END
>  <Original_Directory>
3owu_A_rec_1cqs_equ_lig_tt_docked_0_pocket10

>  <Original_Filename>
3owu_A_rec_1cqs_equ_lig_tt_docked_0_pocket10_gen_sample_10.sdf

>  <Molecule_ID>
sample_10

>  <logS>
-5.5341401

$$$$