/tmp/tmplx9k3gri
  MOE2022           3D

 31 34  0  0  1  0  0  0  0  0999 V2000
   82.0080  -93.7980  123.0740 C   0  0  3  0  0  0  0  0  0  0  0  0
   82.9340  -94.8900  122.5130 C   0  0  0  0  0  0  0  0  0  0  0  0
   83.1210 -100.8390  124.4530 C   0  0  0  0  0  0  0  0  0  0  0  0
   82.3690  -98.7200  123.6280 C   0  0  0  0  0  0  0  0  0  0  0  0
   83.7050  -98.2680  123.5140 C   0  0  0  0  0  0  0  0  0  0  0  0
   81.2530  -98.1450  122.7830 C   0  0  0  0  0  0  0  0  0  0  0  0
   87.2410  -95.3390  120.4050 C   0  0  3  0  0  0  0  0  0  0  0  0
   84.2650  -94.6660  124.5920 C   0  0  0  0  0  0  0  0  0  0  0  0
   84.3670 -100.5710  123.8920 C   0  0  0  0  0  0  0  0  0  0  0  0
   83.3460  -95.6420  123.7930 C   0  0  2  0  0  0  0  0  0  0  0  0
   84.1380  -93.2310  124.1000 C   0  0  0  0  0  0  0  0  0  0  0  0
   87.8050  -94.8960  119.0940 C   0  0  0  0  0  0  0  0  0  0  0  0
   85.1190  -92.5260  123.8700 O   0  0  0  0  0  0  0  0  0  0  0  0
   85.2860  -96.6270  122.6580 C   0  0  3  0  0  0  0  0  0  0  0  0
   82.1440  -99.8350  124.4410 C   0  0  0  0  0  0  0  0  0  0  0  0
   88.0790  -95.0020  121.6380 C   0  0  0  0  0  0  0  0  0  0  0  0
   80.3890  -93.8870  124.9210 O   0  0  0  0  0  0  0  0  0  0  0  0
   84.1060  -96.8980  123.4410 N   0  0  0  0  0  0  0  0  0  0  0  0
   82.0350  -95.6970  124.6050 C   0  0  0  0  0  0  0  0  0  0  0  0
   88.0930  -93.6000  121.8040 O   0  0  0  0  0  0  0  0  0  0  0  0
   88.4840  -95.3120  124.0050 O   0  0  0  0  0  0  0  0  0  0  0  0
   88.5270  -93.8960  119.0110 O   0  0  0  0  0  0  0  0  0  0  0  0
   86.4820  -96.2870  123.3040 C   0  0  0  0  0  0  0  0  0  0  0  0
   86.1620  -96.1530  120.3860 C   0  0  0  0  0  0  0  0  0  0  0  0
   84.6720  -99.2890  123.4300 C   0  0  0  0  0  0  0  0  0  0  0  0
   82.8550  -92.8320  123.8430 N   0  0  0  0  0  0  0  0  0  0  0  0
   87.5900  -95.6280  118.0990 O   0  0  0  0  0  0  0  0  0  0  0  0
   85.2260  -96.6700  121.2640 C   0  0  0  0  0  0  0  0  0  0  0  0
   81.0980  -94.6570  123.9580 C   0  0  3  0  0  0  0  0  0  0  0  0
   89.3570  -95.5500  121.4370 O   0  0  0  0  0  0  0  0  0  0  0  0
   87.6170  -95.6130  122.9750 C   0  0  0  0  0  0  0  0  0  0  0  0
  1  2  1  0  0  0  0
  1 26  1  0  0  0  0
  1 29  1  0  0  0  0
  2 10  1  0  0  0  0
  3  9  2  0  0  0  0
  3 15  1  0  0  0  0
  4  5  1  0  0  0  0
  4  6  1  0  0  0  0
  4 15  2  0  0  0  0
  5 18  1  0  0  0  0
  5 25  2  0  0  0  0
  7 12  1  0  0  0  0
  7 16  1  0  0  0  0
  7 24  1  0  0  0  0
  8 10  1  0  0  0  0
  8 11  1  0  0  0  0
  9 25  1  0  0  0  0
 10 18  1  0  0  0  0
 10 19  1  0  0  0  0
 11 13  2  0  0  0  0
 11 26  1  0  0  0  0
 12 22  1  0  0  0  0
 12 27  2  0  0  0  0
 14 18  1  0  0  0  0
 14 23  1  0  0  0  0
 14 28  1  0  0  0  0
 16 20  1  0  0  0  0
 16 30  1  0  0  0  0
 16 31  1  0  0  0  0
 17 29  1  0  0  0  0
 19 29  1  0  0  0  0
 21 31  1  0  0  0  0
 23 31  2  0  0  0  0
 24 28  2  0  0  0  0
M  END
>  <Original_Directory>
3cej_A_rec_3cej_avf_lig_tt_docked_0_pocket10

>  <Original_Filename>
3cej_A_rec_3cej_avf_lig_tt_docked_0_pocket10_gen_sample_1.sdf

>  <Molecule_ID>
sample_1

>  <logS>
-2.26369

$$$$