/tmp/tmpwagaqf9w
  MOE2022           3D

 11 11  0  0  0  0  0  0  0  0999 V2000
   16.8000    3.8040   12.6860 C   0  0  0  0  0  0  0  0  0  0  0  0
   15.7660    4.4270   12.1380 N   0  0  0  0  0  0  0  0  0  0  0  0
   15.6390    4.5880   10.8200 C   0  0  0  0  0  0  0  0  0  0  0  0
   18.4750    1.8150    7.9750 C   0  0  0  0  0  0  0  0  0  0  0  0
   18.3510    2.9980   10.8810 C   0  0  0  0  0  0  0  0  0  0  0  0
   17.6110    3.4020    9.7630 C   0  0  0  0  0  0  0  0  0  0  0  0
   19.0770    1.0410    8.7380 O   0  0  0  0  0  0  0  0  0  0  0  0
   16.5490    4.2980    9.8530 C   0  0  0  0  0  0  0  0  0  0  0  0
   18.6030    1.7830    6.7150 O   0  0  0  0  0  0  0  0  0  0  0  0
   17.9620    2.9710    8.4880 N   0  0  0  0  0  0  0  0  0  0  0  0
   17.8970    3.1910   12.1710 C   0  0  0  0  0  0  0  0  0  0  0  0
  1  2  2  0  0  0  0
  1 11  1  0  0  0  0
  2  3  1  0  0  0  0
  3  8  2  0  0  0  0
  4  7  1  0  0  0  0
  4  9  2  0  0  0  0
  4 10  1  0  0  0  0
  5  6  2  0  0  0  0
  5 11  1  0  0  0  0
  6  8  1  0  0  0  0
  6 10  1  0  0  0  0
M  END
>  <Original_Directory>
5cs6_A_rec_5cu2_54g_lig_tt_docked_3_pocket10

>  <Original_Filename>
5cs6_A_rec_5cu2_54g_lig_tt_docked_3_pocket10_gen_sample_9.sdf

>  <Molecule_ID>
sample_9

>  <logS>
-0.42962

$$$$