/tmp/tmpuk83j9vz
  MOE2022           3D

 17 18  0  0  1  0  0  0  0  0999 V2000
   30.7460   11.4790   59.7590 O   0  0  0  0  0  0  0  0  0  0  0  0
   31.9810   11.8770   60.1370 C   0  0  0  0  0  0  0  0  0  0  0  0
   32.2380   12.2140   61.4560 C   0  0  0  0  0  0  0  0  0  0  0  0
   32.8910   14.4790   59.6530 C   0  0  0  0  0  0  0  0  0  0  0  0
   31.7620   15.8070   61.3240 C   0  0  3  0  0  0  0  0  0  0  0  0
   32.4670   13.5320   61.8450 C   0  0  0  0  0  0  0  0  0  0  0  0
   31.0190   16.6790   63.2900 C   0  0  0  0  0  0  0  0  0  0  0  0
   32.9500   12.1000   59.1570 C   0  0  0  0  0  0  0  0  0  0  0  0
   30.9800   16.3180   64.4300 O   0  0  0  0  0  0  0  0  0  0  0  0
   30.6020   16.2840   60.6120 C   0  0  0  0  0  0  0  0  0  0  0  0
   29.1750   18.1690   63.1480 O   0  0  0  0  0  0  0  0  0  0  0  0
   32.1080   16.4360   62.4930 O   0  0  0  0  0  0  0  0  0  0  0  0
   32.3850   14.5860   60.9330 C   0  0  0  0  0  0  0  0  0  0  0  0
   33.2420   13.4230   58.8430 C   0  0  0  0  0  0  0  0  0  0  0  0
   29.6650   16.9770   61.2900 N   0  0  0  0  0  0  0  0  0  0  0  0
   30.5480   16.1460   59.3960 O   0  0  0  0  0  0  0  0  0  0  0  0
   29.8510   17.3390   62.5730 C   0  0  0  0  0  0  0  0  0  0  0  0
  1  2  1  0  0  0  0
  2  3  1  0  0  0  0
  2  8  2  0  0  0  0
  3  6  1  0  0  0  0
  4 13  1  0  0  0  0
  4 14  2  0  0  0  0
  5 10  1  0  0  0  0
  5 12  1  0  0  0  0
  5 13  1  0  0  0  0
  6 13  2  0  0  0  0
  7  9  2  0  0  0  0
  7 12  1  0  0  0  0
  7 17  1  0  0  0  0
  8 14  1  0  0  0  0
 10 15  1  0  0  0  0
 10 16  2  0  0  0  0
 11 17  2  0  0  0  0
 15 17  1  0  0  0  0
M  END
>  <Original_Directory>
2fr6_B_rec_2fr6_uri_lig_tt_docked_0_pocket10

>  <Original_Filename>
2fr6_B_rec_2fr6_uri_lig_tt_docked_0_pocket10_gen_sample_1.sdf

>  <Molecule_ID>
sample_1

>  <logS>
-1.93932

$$$$