/tmp/tmps3_crk1c
  MOE2022           3D

 17 19  0  0  1  0  0  0  0  0999 V2000
   30.7260   11.7150   59.1380 O   0  0  0  0  0  0  0  0  0  0  0  0
   31.7990   13.8250   58.9130 C   0  0  0  0  0  0  0  0  0  0  0  0
   33.1740   17.5460   65.0910 O   0  0  0  0  0  0  0  0  0  0  0  0
   31.7900   12.3620   59.3090 C   0  0  0  0  0  0  0  0  0  0  0  0
   32.4360   14.4730   61.2630 C   0  0  0  0  0  0  0  0  0  0  0  0
   32.1760   15.5510   62.1010 C   0  0  0  0  0  0  0  0  0  0  0  0
   30.1350   17.8160   63.1370 C   0  0  0  0  0  0  0  0  0  0  0  0
   32.8050   11.8410   59.8180 O   0  0  0  0  0  0  0  0  0  0  0  0
   32.5340   18.1970   62.8040 C   0  0  0  0  0  0  0  0  0  0  0  0
   30.8610   17.4230   64.4070 C   0  0  0  0  0  0  0  0  0  0  0  0
   30.7740   16.6440   59.0680 O   0  0  0  0  0  0  0  0  0  0  0  0
   31.2570   16.0550   59.9990 C   0  0  0  0  0  0  0  0  0  0  0  0
   32.6060   15.8060   63.5020 C   0  0  0  0  0  0  0  0  0  0  0  0
   31.2170   17.9140   62.0490 C   0  0  3  0  0  0  0  0  0  0  0  0
   32.3160   17.2330   64.0020 C   0  0  2  0  0  0  0  0  0  0  0  0
   31.9650   14.7580   59.9280 C   0  0  0  0  0  0  0  0  0  0  0  0
   31.3720   16.5670   61.3880 C   0  0  0  0  0  0  0  0  0  0  0  0
  1  4  2  0  0  0  0
  2  4  1  0  0  0  0
  2 16  1  0  0  0  0
  3 15  1  0  0  0  0
  4  8  1  0  0  0  0
  5  6  1  0  0  0  0
  5 16  2  0  0  0  0
  6 13  1  0  0  0  0
  6 17  2  0  0  0  0
  7 10  1  0  0  0  0
  7 14  1  0  0  0  0
  9 14  1  0  0  0  0
  9 15  1  0  0  0  0
 10 15  1  0  0  0  0
 11 12  2  0  0  0  0
 12 16  1  0  0  0  0
 12 17  1  0  0  0  0
 13 15  1  0  0  0  0
 14 17  1  0  0  0  0
M  END
>  <Original_Directory>
2fr6_B_rec_2fr6_uri_lig_tt_docked_0_pocket10

>  <Original_Filename>
2fr6_B_rec_2fr6_uri_lig_tt_docked_0_pocket10_gen_sample_17.sdf

>  <Molecule_ID>
sample_17

>  <logS>
-1.32775

$$$$