/tmp/tmpdyafsfoc
  MOE2022           3D

 23 27  0  0  1  0  0  0  0  0999 V2000
    1.5500   45.2600    4.5400 N   0  0  0  0  0  0  0  0  0  0  0  0
    7.6150   44.3670    4.8560 O   0  0  0  0  0  0  0  0  0  0  0  0
    1.3710   46.5890    5.0020 C   0  0  2  0  0  0  0  0  0  0  0  0
    3.4800   45.9000    5.4280 C   0  0  0  0  0  0  0  0  0  0  0  0
    6.9070   44.9810    8.0360 C   0  0  0  0  0  0  0  0  0  0  0  0
    2.5620   46.8500    5.7830 N   0  0  0  0  0  0  0  0  0  0  0  0
    6.9700   44.0330    7.0270 C   0  0  0  0  0  0  0  0  0  0  0  0
    2.8940   45.0470    4.5090 C   0  0  0  0  0  0  0  0  0  0  0  0
   -0.2730   45.9140    7.0410 C   0  0  0  0  0  0  0  0  0  0  0  0
    0.2370   46.8950    5.9950 C   0  0  3  0  0  0  0  0  0  0  0  0
    6.7030   44.2990    5.6910 C   0  0  0  0  0  0  0  0  0  0  0  0
   -0.5600   49.2930    8.2720 O   0  0  0  0  0  0  0  0  0  0  0  0
    4.7940   45.6940    5.8330 C   0  0  3  0  0  0  0  0  0  0  0  0
    0.8320   48.0610    6.7790 C   0  0  3  0  0  0  0  0  0  0  0  0
    1.3180   47.4010    3.9580 O   0  0  0  0  0  0  0  0  0  0  0  0
    3.6590   44.1500    3.7550 C   0  0  0  0  0  0  0  0  0  0  0  0
   -0.8990   46.8720    8.0590 C   0  0  0  0  0  0  0  0  0  0  0  0
    5.2920   46.4450    6.8880 C   0  0  0  0  0  0  0  0  0  0  0  0
    0.0930   48.0370    8.1200 C   0  0  3  0  0  0  0  0  0  0  0  0
    2.3330   47.7510    6.9140 C   0  0  0  0  0  0  0  0  0  0  0  0
    4.9460   43.9380    4.1850 C   0  0  0  0  0  0  0  0  0  0  0  0
    5.4910   44.6840    5.2030 N   0  0  0  0  0  0  0  0  0  0  0  0
    6.0260   46.0360    7.9820 C   0  0  0  0  0  0  0  0  0  0  0  0
  1  3  1  0  0  0  0
  1  8  1  0  0  0  0
  2 11  2  0  0  0  0
  3  6  1  0  0  0  0
  3 10  1  0  0  0  0
  3 15  1  0  0  0  0
  4  6  1  0  0  0  0
  4  8  2  0  0  0  0
  4 13  1  0  0  0  0
  5  7  1  0  0  0  0
  5 23  2  0  0  0  0
  6 20  1  0  0  0  0
  7 11  1  0  0  0  0
  8 16  1  0  0  0  0
  9 10  1  0  0  0  0
  9 17  1  0  0  0  0
 10 14  1  0  0  0  0
 11 22  1  0  0  0  0
 12 19  1  0  0  0  0
 13 18  1  0  0  0  0
 13 22  1  0  0  0  0
 14 19  1  0  0  0  0
 14 20  1  0  0  0  0
 16 21  2  0  0  0  0
 17 19  1  0  0  0  0
 18 23  1  0  0  0  0
 21 22  1  0  0  0  0
M  END
>  <Original_Directory>
5aep_A_rec_4d0w_vvq_lig_tt_docked_3_pocket10

>  <Original_Filename>
5aep_A_rec_4d0w_vvq_lig_tt_docked_3_pocket10_gen_sample_3.sdf

>  <Molecule_ID>
sample_3

>  <logS>
-1.50834

$$$$