/tmp/tmpv22e4gza
  MOE2022           3D

  9  9  0  0  1  0  0  0  0  0999 V2000
   24.5310   31.2350   19.8740 C   0  0  0  0  0  0  0  0  0  0  0  0
   26.5160   32.7050   18.6430 C   0  0  0  0  0  0  0  0  0  0  0  0
   25.3350   29.4880   18.4990 O   0  0  0  0  0  0  0  0  0  0  0  0
   23.6410   30.9080   17.6150 C   0  0  0  0  0  0  0  0  0  0  0  0
   26.1640   34.4590   20.2340 O   0  0  0  0  0  0  0  0  0  0  0  0
   24.8910   32.4490   20.3870 C   0  0  0  0  0  0  0  0  0  0  0  0
   25.9730   31.6870   17.9240 C   0  0  0  0  0  0  0  0  0  0  0  0
   24.8980   30.8300   18.4830 C   0  0  1  0  0  0  0  0  0  0  0  0
   25.8700   33.2230   19.7650 C   0  0  0  0  0  0  0  0  0  0  0  0
  1  6  1  0  0  0  0
  1  8  1  0  0  0  0
  2  7  1  0  0  0  0
  2  9  1  0  0  0  0
  3  8  1  0  0  0  0
  4  8  1  0  0  0  0
  5  9  1  0  0  0  0
  6  9  2  0  0  0  0
  7  8  1  0  0  0  0
M  END
>  <Original_Directory>
1tpb_1_rec_1sw7_pga_lig_tt_docked_8_pocket10

>  <Original_Filename>
1tpb_1_rec_1sw7_pga_lig_tt_docked_8_pocket10_gen_sample_5.sdf

>  <Molecule_ID>
sample_5

>  <logS>
-0.0095600002

$$$$