/tmp/tmp_quh17ay
  MOE2022           3D

 22 25  0  0  1  0  0  0  0  0999 V2000
   25.7530   60.6940   22.5190 C   0  0  0  0  0  0  0  0  0  0  0  0
   23.3150   61.9630   19.9380 C   0  0  0  0  0  0  0  0  0  0  0  0
   25.7640   62.6480   20.0640 C   0  0  0  0  0  0  0  0  0  0  0  0
   25.6950   63.6640   19.0920 C   0  0  0  0  0  0  0  0  0  0  0  0
   20.2660   61.0700   23.9030 N   0  0  0  0  0  0  0  0  0  0  0  0
   23.0000   62.0720   18.5740 C   0  0  0  0  0  0  0  0  0  0  0  0
   18.0940   61.0660   23.1680 O   0  0  0  0  0  0  0  0  0  0  0  0
   21.1900   61.5720   22.9710 C   0  0  0  0  0  0  0  0  0  0  0  0
   24.5990   60.9060   21.6070 C   0  0  0  0  0  0  0  0  0  0  0  0
   22.2810   60.1120   24.3120 N   0  0  0  0  0  0  0  0  0  0  0  0
   26.7250   64.5400   19.0490 O   0  0  0  0  0  0  0  0  0  0  0  0
   23.6910   63.0050   17.7650 C   0  0  0  0  0  0  0  0  0  0  0  0
   18.8950   61.3790   24.0920 C   0  0  0  0  0  0  0  0  0  0  0  0
   20.5420   59.6480   25.7270 O   0  0  0  0  0  0  0  0  0  0  0  0
   22.3740   60.8170   23.1480 C   0  0  3  0  0  0  0  0  0  0  0  0
   24.6640   61.8410   20.4490 C   0  0  0  0  0  0  0  0  0  0  0  0
   24.6540   63.8750   18.1880 C   0  0  0  0  0  0  0  0  0  0  0  0
   18.5070   61.7400   25.2310 O   0  0  0  0  0  0  0  0  0  0  0  0
   22.4620   61.6750   21.0400 C   0  0  0  0  0  0  0  0  0  0  0  0
   23.1710   60.8880   21.9800 C   0  0  0  0  0  0  0  0  0  0  0  0
   21.1730   62.1670   21.6110 C   0  0  0  0  0  0  0  0  0  0  0  0
   21.0680   60.4200   24.9150 C   0  0  0  0  0  0  0  0  0  0  0  0
  1  9  1  0  0  0  0
  2  6  1  0  0  0  0
  2 16  1  0  0  0  0
  2 19  2  0  0  0  0
  3  4  1  0  0  0  0
  3 16  2  0  0  0  0
  4 11  1  0  0  0  0
  4 17  2  0  0  0  0
  5  8  1  0  0  0  0
  5 13  1  0  0  0  0
  5 22  1  0  0  0  0
  6 12  2  0  0  0  0
  7 13  2  0  0  0  0
  8 15  1  0  0  0  0
  8 21  2  0  0  0  0
  9 16  1  0  0  0  0
  9 20  2  0  0  0  0
 10 15  1  0  0  0  0
 10 22  1  0  0  0  0
 12 17  1  0  0  0  0
 13 18  1  0  0  0  0
 14 22  2  0  0  0  0
 15 20  1  0  0  0  0
 19 20  1  0  0  0  0
 19 21  1  0  0  0  0
M  END
>  <Original_Directory>
3l13_A_rec_4anu_em7_lig_tt_min_0_pocket10

>  <Original_Filename>
3l13_A_rec_4anu_em7_lig_tt_min_0_pocket10_gen_sample_3.sdf

>  <Molecule_ID>
sample_3

>  <logS>
-4.1504998

$$$$