/tmp/tmpm7r_05dn
  MOE2022           3D

  7  7  0  0  0  0  0  0  0  0999 V2000
   22.5970   11.8480   -0.3000 C   0  0  0  0  0  0  0  0  0  0  0  0
   23.1490   13.0220   -1.0430 C   0  0  0  0  0  0  0  0  0  0  0  0
   24.4120   12.5820   -1.7600 C   0  0  0  0  0  0  0  0  0  0  0  0
   24.7160   10.3530   -2.6070 O   0  0  0  0  0  0  0  0  0  0  0  0
   23.4730   10.6460   -0.5730 C   0  0  0  0  0  0  0  0  0  0  0  0
   24.6330   11.1130   -1.4490 C   0  0  0  0  0  0  0  0  0  0  0  0
   25.8310   10.9190   -0.7540 O   0  0  0  0  0  0  0  0  0  0  0  0
  1  2  2  0  0  0  0
  1  5  1  0  0  0  0
  2  3  1  0  0  0  0
  3  6  1  0  0  0  0
  4  6  1  0  0  0  0
  5  6  1  0  0  0  0
  6  7  1  0  0  0  0
M  END
>  <Original_Directory>
4mv7_A_rec_4mv7_ppf_lig_tt_docked_0_pocket10

>  <Original_Filename>
4mv7_A_rec_4mv7_ppf_lig_tt_docked_0_pocket10_gen_sample_8.sdf

>  <Molecule_ID>
sample_8

>  <logS>
0.34007999

$$$$