/tmp/tmp14g48pzh
  MOE2022           3D

 14 15  0  0  1  0  0  0  0  0999 V2000
   -9.9920  -28.6460    3.8200 C   0  0  0  0  0  0  0  0  0  0  0  0
  -11.0150  -27.2820    1.4150 C   0  0  0  0  0  0  0  0  0  0  0  0
  -13.6920  -27.7270    0.5960 C   0  0  0  0  0  0  0  0  0  0  0  0
   -9.9750  -26.6110    2.3140 C   0  0  0  0  0  0  0  0  0  0  0  0
  -16.3780  -28.4750    2.9810 C   0  0  0  0  0  0  0  0  0  0  0  0
  -15.8040  -28.9270    0.6230 C   0  0  0  0  0  0  0  0  0  0  0  0
  -11.9490  -28.0350    2.3530 C   0  0  0  0  0  0  0  0  0  0  0  0
  -16.0220  -30.6790    2.1550 O   0  0  0  0  0  0  0  0  0  0  0  0
  -13.2680  -28.3820    1.7400 C   0  0  0  0  0  0  0  0  0  0  0  0
  -15.5760  -29.3350    2.0280 C   0  0  2  0  0  0  0  0  0  0  0  0
  -14.9320  -28.0460    0.0260 C   0  0  0  0  0  0  0  0  0  0  0  0
  -11.2110  -29.1530    3.0620 C   0  0  0  0  0  0  0  0  0  0  0  0
  -14.1230  -29.2480    2.4030 C   0  0  0  0  0  0  0  0  0  0  0  0
   -9.1500  -27.6810    3.0080 C   0  0  0  0  0  0  0  0  0  0  0  0
  1 12  1  0  0  0  0
  1 14  1  0  0  0  0
  2  4  1  0  0  0  0
  2  7  1  0  0  0  0
  3  9  2  0  0  0  0
  3 11  1  0  0  0  0
  4 14  1  0  0  0  0
  5 10  1  0  0  0  0
  6 10  1  0  0  0  0
  6 11  2  0  0  0  0
  7  9  1  0  0  0  0
  7 12  1  0  0  0  0
  8 10  1  0  0  0  0
  9 13  1  0  0  0  0
 10 13  1  0  0  0  0
M  END
>  <Original_Directory>
5ezg_A_rec_5ioz_6c4_lig_tt_min_0_pocket10

>  <Original_Filename>
5ezg_A_rec_5ioz_6c4_lig_tt_min_0_pocket10_gen_sample_5.sdf

>  <Molecule_ID>
sample_5

>  <logS>
-3.5620699

$$$$