/tmp/tmpqvg7jnwc
  MOE2022           3D

 14 15  0  0  0  0  0  0  0  0999 V2000
  -11.1700  -27.9790    2.8140 C   0  0  0  0  0  0  0  0  0  0  0  0
  -16.4170  -30.0520    0.6430 C   0  0  0  0  0  0  0  0  0  0  0  0
  -17.2220  -29.9350    1.7680 C   0  0  0  0  0  0  0  0  0  0  0  0
  -15.1830  -29.4070    0.6090 C   0  0  0  0  0  0  0  0  0  0  0  0
   -8.6720  -27.9780    3.9980 C   0  0  0  0  0  0  0  0  0  0  0  0
  -15.6820  -28.3290    2.6880 C   0  0  0  0  0  0  0  0  0  0  0  0
  -12.2970  -28.4970    1.9720 C   0  0  0  0  0  0  0  0  0  0  0  0
   -8.8810  -27.2640    2.8200 C   0  0  0  0  0  0  0  0  0  0  0  0
  -10.1450  -27.2340    2.2490 C   0  0  0  0  0  0  0  0  0  0  0  0
  -14.7940  -28.5760    1.6440 C   0  0  0  0  0  0  0  0  0  0  0  0
  -11.0050  -28.4880    4.1010 C   0  0  0  0  0  0  0  0  0  0  0  0
  -13.4270  -27.9400    1.6620 C   0  0  0  0  0  0  0  0  0  0  0  0
   -9.7780  -28.3220    4.7470 C   0  0  0  0  0  0  0  0  0  0  0  0
  -16.8860  -29.0290    2.7590 C   0  0  0  0  0  0  0  0  0  0  0  0
  1  7  1  0  0  0  0
  1  9  2  0  0  0  0
  1 11  1  0  0  0  0
  2  3  1  0  0  0  0
  2  4  2  0  0  0  0
  3 14  2  0  0  0  0
  4 10  1  0  0  0  0
  5  8  2  0  0  0  0
  5 13  1  0  0  0  0
  6 10  2  0  0  0  0
  6 14  1  0  0  0  0
  7 12  1  0  0  0  0
  8  9  1  0  0  0  0
 10 12  1  0  0  0  0
 11 13  2  0  0  0  0
M  END
>  <Original_Directory>
5ezg_A_rec_5ioz_6c4_lig_tt_min_0_pocket10

>  <Original_Filename>
5ezg_A_rec_5ioz_6c4_lig_tt_min_0_pocket10_gen_sample_3.sdf

>  <Molecule_ID>
sample_3

>  <logS>
-3.8761799

$$$$