/tmp/tmp_7rmpfm_
  MOE2022           3D

 27 30  0  0  1  0  0  0  0  0999 V2000
   14.4710   28.1620  -13.9020 C   0  0  0  0  0  0  0  0  0  0  0  0
   18.5490   26.4700  -19.1560 C   0  0  0  0  0  0  0  0  0  0  0  0
   13.1260   24.6890  -14.4700 C   0  0  0  0  0  0  0  0  0  0  0  0
   16.6420   26.4870  -12.4560 C   0  0  0  0  0  0  0  0  0  0  0  0
   15.7870   30.0560  -15.4400 C   0  0  0  0  0  0  0  0  0  0  0  0
   19.7120   27.0820  -18.5770 C   0  0  0  0  0  0  0  0  0  0  0  0
   13.0470   23.3140  -14.4590 C   0  0  0  0  0  0  0  0  0  0  0  0
   17.0430   26.3420  -17.1570 C   0  0  0  0  0  0  0  0  0  0  0  0
   13.9090   21.1730  -14.9960 O   0  0  0  0  0  0  0  0  0  0  0  0
   14.1480   22.4790  -14.6640 C   0  0  0  0  0  0  0  0  0  0  0  0
   15.5570   25.3440  -14.4580 C   0  0  0  0  0  0  0  0  0  0  0  0
   17.8240   26.3750  -14.5930 C   0  0  3  0  0  0  0  0  0  0  0  0
   19.2290   26.5920  -16.1370 C   0  0  0  0  0  0  0  0  0  0  0  0
   19.3050   26.4710  -14.7040 N   0  0  0  0  0  0  0  0  0  0  0  0
   13.8030   29.3170  -14.3080 C   0  0  0  0  0  0  0  0  0  0  0  0
   16.4250   28.8520  -15.1180 C   0  0  0  0  0  0  0  0  0  0  0  0
   14.2100   25.5140  -14.7110 C   0  0  0  0  0  0  0  0  0  0  0  0
   17.3490   26.3220  -18.5100 C   0  0  0  0  0  0  0  0  0  0  0  0
   15.7580   27.8820  -14.3620 C   0  0  0  0  0  0  0  0  0  0  0  0
   16.4160   26.5410  -13.9710 C   0  0  2  0  0  0  0  0  0  0  0  0
   18.6430   26.0650  -20.4560 O   0  0  0  0  0  0  0  0  0  0  0  0
   17.9190   26.4260  -16.0920 C   0  0  0  0  0  0  0  0  0  0  0  0
   20.0370   26.9650  -17.2280 C   0  0  0  0  0  0  0  0  0  0  0  0
   15.4680   22.8680  -14.5370 C   0  0  0  0  0  0  0  0  0  0  0  0
   16.1160   24.0860  -14.6550 C   0  0  0  0  0  0  0  0  0  0  0  0
   20.5540   27.8150  -19.3470 N   0  0  0  0  0  0  0  0  0  0  0  0
   14.4930   30.2970  -15.0060 C   0  0  0  0  0  0  0  0  0  0  0  0
  1 15  1  0  0  0  0
  1 19  2  0  0  0  0
  2  6  2  0  0  0  0
  2 18  1  0  0  0  0
  2 21  1  0  0  0  0
  3  7  1  0  0  0  0
  3 17  2  0  0  0  0
  4 20  1  0  0  0  0
  5 16  2  0  0  0  0
  5 27  1  0  0  0  0
  6 23  1  0  0  0  0
  6 26  1  0  0  0  0
  7 10  1  0  0  0  0
  8 18  1  0  0  0  0
  8 22  2  0  0  0  0
  9 10  1  0  0  0  0
 10 24  2  0  0  0  0
 11 17  1  0  0  0  0
 11 20  1  0  0  0  0
 11 25  2  0  0  0  0
 12 14  1  0  0  0  0
 12 20  1  0  0  0  0
 12 22  1  0  0  0  0
 13 14  1  0  0  0  0
 13 22  1  0  0  0  0
 13 23  2  0  0  0  0
 15 27  2  0  0  0  0
 16 19  1  0  0  0  0
 19 20  1  0  0  0  0
 24 25  1  0  0  0  0
M  END
>  <Original_Directory>
5fqs_A_rec_5fqs_j0w_lig_tt_min_0_pocket10

>  <Original_Filename>
5fqs_A_rec_5fqs_j0w_lig_tt_min_0_pocket10_gen_sample_11.sdf

>  <Molecule_ID>
sample_11

>  <logS>
-3.6982601

$$$$