/tmp/tmpyb68yu_2
  MOE2022           3D

 35 38  0  0  1  0  0  0  0  0999 V2000
   36.9160  -22.0160  -18.4380 C   0  0  0  0  0  0  0  0  0  0  0  0
   43.9300  -18.8830  -14.2800 C   0  0  0  0  0  0  0  0  0  0  0  0
   38.0170  -20.0450  -17.3390 C   0  0  0  0  0  0  0  0  0  0  0  0
   33.7360  -20.5730  -19.4800 O   0  0  0  0  0  0  0  0  0  0  0  0
   37.1370  -20.7300  -20.9150 C   0  0  0  0  0  0  0  0  0  0  0  0
   43.8040  -21.1720  -15.0930 C   0  0  0  0  0  0  0  0  0  0  0  0
   40.9460  -19.8790  -13.2310 C   0  0  3  0  0  0  0  0  0  0  0  0
   33.6630  -22.2570  -20.6570 O   0  0  0  0  0  0  0  0  0  0  0  0
   37.7830  -20.2220  -19.7840 C   0  0  0  0  0  0  0  0  0  0  0  0
   45.9470  -19.1180  -15.7610 C   0  0  0  0  0  0  0  0  0  0  0  0
   39.5030  -19.9520  -17.1380 C   0  0  3  0  0  0  0  0  0  0  0  0
   34.4950  -20.9800  -20.7390 P   0  0  0  0  0  0  0  0  0  0  0  0
   41.2330  -19.6480  -15.6550 N   0  0  0  0  0  0  0  0  0  0  0  0
   41.6460  -21.7210  -14.5620 O   0  0  0  0  0  0  0  0  0  0  0  0
   42.9280  -22.3250  -14.7550 C   0  0  0  0  0  0  0  0  0  0  0  0
   39.1070  -20.2840  -14.7780 O   0  0  0  0  0  0  0  0  0  0  0  0
   34.8850  -19.4170  -20.7850 O   0  0  0  0  0  0  0  0  0  0  0  0
   41.5820  -19.7980  -11.5550 P   0  0  0  0  0  0  0  0  0  0  0  0
   37.2270  -19.5000  -16.5830 O   0  0  0  0  0  0  0  0  0  0  0  0
   33.7510  -20.8570  -22.0620 O   0  0  0  0  0  0  0  0  0  0  0  0
   43.2410  -20.0390  -14.5400 C   0  0  3  0  0  0  0  0  0  0  0  0
   45.1330  -18.5140  -14.8490 C   0  0  0  0  0  0  0  0  0  0  0  0
   41.7630  -20.2750  -14.4590 C   0  0  2  0  0  0  0  0  0  0  0  0
   40.4890  -19.0940  -10.7990 O   0  0  0  0  0  0  0  0  0  0  0  0
   39.0580  -21.4080  -12.6460 C   0  0  0  0  0  0  0  0  0  0  0  0
   36.3320  -22.6170  -19.5690 C   0  0  0  0  0  0  0  0  0  0  0  0
   42.8280  -18.9710  -11.4690 O   0  0  0  0  0  0  0  0  0  0  0  0
   45.7650  -20.3510  -16.3690 C   0  0  0  0  0  0  0  0  0  0  0  0
   41.8310  -21.2240  -11.1520 O   0  0  0  0  0  0  0  0  0  0  0  0
   36.0960  -21.7570  -20.7460 C   0  0  3  0  0  0  0  0  0  0  0  0
   40.1340  -21.2160  -17.3180 O   0  0  0  0  0  0  0  0  0  0  0  0
   37.5460  -20.7780  -18.5340 C   0  0  0  0  0  0  0  0  0  0  0  0
   44.7800  -21.2560  -16.0690 C   0  0  0  0  0  0  0  0  0  0  0  0
   39.4540  -20.1400  -13.3940 C   0  0  3  0  0  0  0  0  0  0  0  0
   39.8020  -19.4410  -15.7200 C   0  0  3  0  0  0  0  0  0  0  0  0
  1 26  1  0  0  0  0
  1 32  1  0  0  0  0
  2 21  1  0  0  0  0
  2 22  2  0  0  0  0
  3 11  1  0  0  0  0
  3 19  2  0  0  0  0
  3 32  1  0  0  0  0
  4 12  1  0  0  0  0
  5  9  1  0  0  0  0
  5 30  1  0  0  0  0
  6 15  1  0  0  0  0
  6 21  1  0  0  0  0
  6 33  2  0  0  0  0
  7 18  1  0  0  0  0
  7 23  1  0  0  0  0
  7 34  1  0  0  0  0
  8 12  1  0  0  0  0
  9 32  2  0  0  0  0
 10 22  1  0  0  0  0
 10 28  2  0  0  0  0
 11 31  1  0  0  0  0
 11 35  1  0  0  0  0
 12 17  1  0  0  0  0
 12 20  1  0  0  0  0
 12 30  1  0  0  0  0
 13 23  1  0  0  0  0
 13 35  1  0  0  0  0
 14 15  1  0  0  0  0
 14 23  1  0  0  0  0
 16 34  1  0  0  0  0
 16 35  1  0  0  0  0
 18 24  1  0  0  0  0
 18 27  2  0  0  0  0
 18 29  1  0  0  0  0
 21 23  1  0  0  0  0
 25 34  1  0  0  0  0
 26 30  1  0  0  0  0
 28 33  1  0  0  0  0
M  END
>  <Original_Directory>
4ohk_B_rec_4mqu_mg9_lig_tt_docked_1_pocket10

>  <Original_Filename>
4ohk_B_rec_4mqu_mg9_lig_tt_docked_1_pocket10_gen_sample_17.sdf

>  <Molecule_ID>
sample_17

>  <logS>
-0.76381999

$$$$