/tmp/tmpcfovyvma
  MOE2022           3D

 29 32  0  0  1  0  0  0  0  0999 V2000
  -21.4000    3.5990  -10.7920 O   0  0  0  0  0  0  0  0  0  0  0  0
  -21.8680   -1.4960   -9.1620 C   0  0  0  0  0  0  0  0  0  0  0  0
  -21.2770    0.6790   -4.5380 C   0  0  3  0  0  0  0  0  0  0  0  0
  -20.3500    0.7300  -10.1860 C   0  0  0  0  0  0  0  0  0  0  0  0
  -23.2130    2.5930  -11.5640 O   0  0  0  0  0  0  0  0  0  0  0  0
  -27.4410    2.7220   -0.5050 C   0  0  0  0  0  0  0  0  0  0  0  0
  -24.2870    0.9020   -0.7330 C   0  0  0  0  0  0  0  0  0  0  0  0
  -22.4930   -1.2710   -6.0770 C   0  0  0  0  0  0  0  0  0  0  0  0
  -22.6830    0.3480   -2.5740 C   0  0  3  0  0  0  0  0  0  0  0  0
  -20.4050    0.6970   -3.2930 C   0  0  0  0  0  0  0  0  0  0  0  0
  -23.2630   -0.7910   -4.8670 C   0  0  0  0  0  0  0  0  0  0  0  0
  -20.1050   -0.5940  -10.6760 C   0  0  0  0  0  0  0  0  0  0  0  0
  -21.4530    0.9230   -9.2430 C   0  0  0  0  0  0  0  0  0  0  0  0
  -22.9560   -2.2920   -9.0230 N   0  0  0  0  0  0  0  0  0  0  0  0
  -20.8470   -1.7040  -10.1900 C   0  0  0  0  0  0  0  0  0  0  0  0
  -25.5850    1.1470   -0.2710 C   0  0  0  0  0  0  0  0  0  0  0  0
  -26.6880    1.5830   -1.1940 C   0  0  0  0  0  0  0  0  0  0  0  0
  -26.1750    2.0690   -2.5360 C   0  0  0  0  0  0  0  0  0  0  0  0
  -21.3960    1.0650   -2.2110 C   0  0  0  0  0  0  0  0  0  0  0  0
  -22.4730    2.0250   -9.3760 C   0  0  0  0  0  0  0  0  0  0  0  0
  -22.5620    0.0760   -4.0580 C   0  0  3  0  0  0  0  0  0  0  0  0
  -27.5270    0.4670   -1.4390 O   0  0  0  0  0  0  0  0  0  0  0  0
  -23.9380    1.0540   -2.1190 C   0  0  0  0  0  0  0  0  0  0  0  0
  -21.7350   -0.2140   -6.9080 C   0  0  3  0  0  0  0  0  0  0  0  0
  -20.9970    0.8040   -6.0300 C   0  0  0  0  0  0  0  0  0  0  0  0
  -22.3550    2.7780  -10.6860 C   0  0  0  0  0  0  0  0  0  0  0  0
  -22.3900   -2.4620   -6.3240 O   0  0  0  0  0  0  0  0  0  0  0  0
  -24.8650    1.7710   -2.9920 C   0  0  0  0  0  0  0  0  0  0  0  0
  -21.7230   -0.2340   -8.3470 C   0  0  0  0  0  0  0  0  0  0  0  0
  1 26  1  0  0  0  0
  2 14  1  0  0  0  0
  2 15  2  0  0  0  0
  2 29  1  0  0  0  0
  3 10  1  0  0  0  0
  3 21  1  0  0  0  0
  3 25  1  0  0  0  0
  4 12  2  0  0  0  0
  4 13  1  0  0  0  0
  5 26  2  0  0  0  0
  6 17  1  0  0  0  0
  7 16  2  0  0  0  0
  7 23  1  0  0  0  0
  8 11  1  0  0  0  0
  8 24  1  0  0  0  0
  8 27  2  0  0  0  0
  9 19  1  0  0  0  0
  9 21  1  0  0  0  0
  9 23  1  0  0  0  0
 10 19  1  0  0  0  0
 11 21  1  0  0  0  0
 12 15  1  0  0  0  0
 13 20  1  0  0  0  0
 13 29  2  0  0  0  0
 16 17  1  0  0  0  0
 17 18  1  0  0  0  0
 17 22  1  0  0  0  0
 18 28  2  0  0  0  0
 20 26  1  0  0  0  0
 23 28  1  0  0  0  0
 24 25  1  0  0  0  0
 24 29  1  0  0  0  0
M  END
>  <Original_Directory>
3ng5_A_rec_2roy_p28_lig_tt_docked_0_pocket10

>  <Original_Filename>
3ng5_A_rec_2roy_p28_lig_tt_docked_0_pocket10_gen_sample_3.sdf

>  <Molecule_ID>
sample_3

>  <logS>
-5.00035

$$$$