/tmp/tmpiiqog9ul
  MOE2022           3D

 28 33  0  0  1  0  0  0  0  0999 V2000
   12.6270   28.7660   23.1880 C   0  0  0  0  0  0  0  0  0  0  0  0
   16.1980   28.0620   22.3500 C   0  0  0  0  0  0  0  0  0  0  0  0
    9.9450   32.7220   20.0400 C   0  0  0  0  0  0  0  0  0  0  0  0
    8.5750   32.6700   20.7480 C   0  0  0  0  0  0  0  0  0  0  0  0
   12.1760   29.9060   22.5530 C   0  0  0  0  0  0  0  0  0  0  0  0
   18.6080   30.6890   21.9550 C   0  0  0  0  0  0  0  0  0  0  0  0
   10.5800   28.7330   24.4310 C   0  0  0  0  0  0  0  0  0  0  0  0
   17.6600   28.4140   22.2550 C   0  0  3  0  0  0  0  0  0  0  0  0
   15.1850   28.8580   22.8930 C   0  0  0  0  0  0  0  0  0  0  0  0
   17.9350   29.7490   22.9700 C   0  0  0  0  0  0  0  0  0  0  0  0
   18.4390   27.6850   19.9440 N   0  0  0  0  0  0  0  0  0  0  0  0
   11.0900   32.7550   22.1240 C   0  0  0  0  0  0  0  0  0  0  0  0
   18.8340   28.1020   18.7250 C   0  0  0  0  0  0  0  0  0  0  0  0
   15.5860   26.8800   21.9030 C   0  0  0  0  0  0  0  0  0  0  0  0
   10.0880   29.7740   23.6570 C   0  0  0  0  0  0  0  0  0  0  0  0
    9.8480   33.2220   18.6050 C   0  0  0  0  0  0  0  0  0  0  0  0
   11.8520   28.2330   24.2120 C   0  0  0  0  0  0  0  0  0  0  0  0
   10.8610   30.3190   22.6390 C   0  0  0  0  0  0  0  0  0  0  0  0
   14.2040   26.9520   22.1710 C   0  0  0  0  0  0  0  0  0  0  0  0
   10.3540   31.4500   21.7830 C   0  0  0  0  0  0  0  0  0  0  0  0
   10.7920   33.6720   20.9320 C   0  0  0  0  0  0  0  0  0  0  0  0
   18.8930   29.4400   18.3640 C   0  0  0  0  0  0  0  0  0  0  0  0
   18.6200   30.3940   19.3410 C   0  0  0  0  0  0  0  0  0  0  0  0
   18.1780   28.6230   20.8660 C   0  0  0  0  0  0  0  0  0  0  0  0
   13.9550   28.1940   22.7870 C   0  0  0  0  0  0  0  0  0  0  0  0
   18.4960   29.9580   20.6470 C   0  0  0  0  0  0  0  0  0  0  0  0
    8.8320   31.6650   21.8830 C   0  0  0  0  0  0  0  0  0  0  0  0
   10.5250   31.3260   20.2620 C   0  0  0  0  0  0  0  0  0  0  0  0
  1  5  1  0  0  0  0
  1 17  2  0  0  0  0
  1 25  1  0  0  0  0
  2  8  1  0  0  0  0
  2  9  1  0  0  0  0
  2 14  2  0  0  0  0
  3  4  1  0  0  0  0
  3 16  1  0  0  0  0
  3 21  1  0  0  0  0
  3 28  1  0  0  0  0
  4 27  1  0  0  0  0
  5 18  2  0  0  0  0
  6 10  1  0  0  0  0
  6 26  1  0  0  0  0
  7 15  2  0  0  0  0
  7 17  1  0  0  0  0
  8 10  1  0  0  0  0
  8 24  1  0  0  0  0
  9 25  1  0  0  0  0
 11 13  1  0  0  0  0
 11 24  2  0  0  0  0
 12 20  1  0  0  0  0
 12 21  1  0  0  0  0
 13 22  2  0  0  0  0
 14 19  1  0  0  0  0
 15 18  1  0  0  0  0
 18 20  1  0  0  0  0
 19 25  2  0  0  0  0
 20 27  1  0  0  0  0
 20 28  1  0  0  0  0
 22 23  1  0  0  0  0
 23 26  2  0  0  0  0
 24 26  1  0  0  0  0
M  END
>  <Original_Directory>
2rew_A_rec_1i7g_az2_lig_tt_min_0_pocket10

>  <Original_Filename>
2rew_A_rec_1i7g_az2_lig_tt_min_0_pocket10_gen_sample_10.sdf

>  <Molecule_ID>
sample_10

>  <logS>
-7.5942001

$$$$