/tmp/tmpc9c9t_ck
  MOE2022           3D

 31 36  0  0  1  0  0  0  0  0999 V2000
   -3.6200   19.3530   24.3720 C   0  0  3  0  0  0  0  0  0  0  0  0
   -1.4450   17.2840   28.1850 C   0  0  0  0  0  0  0  0  0  0  0  0
    0.8750   13.4040   25.6830 N   0  0  0  0  0  0  0  0  0  0  0  0
   -2.5450   19.4960   21.6390 C   0  0  0  0  0  0  0  0  0  0  0  0
   -1.9580   18.3650   27.2560 C   0  0  0  0  0  0  0  0  0  0  0  0
   -2.6730   17.2500   22.6210 C   0  0  0  0  0  0  0  0  0  0  0  0
   -2.9120   18.1430   24.9450 C   0  0  3  0  0  0  0  0  0  0  0  0
   -0.7720   13.8020   27.5240 C   0  0  0  0  0  0  0  0  0  0  0  0
   -4.0470   15.3990   26.6820 C   0  0  0  0  0  0  0  0  0  0  0  0
   -3.5350   18.4100   22.0740 C   0  0  3  0  0  0  0  0  0  0  0  0
   -2.7620   16.1850   26.3830 C   0  0  1  0  0  0  0  0  0  0  0  0
    3.2230   12.9570   25.1130 C   0  0  0  0  0  0  0  0  0  0  0  0
   -1.7970   15.9600   27.5420 C   0  0  3  0  0  0  0  0  0  0  0  0
    0.5050   11.7110   27.0070 N   0  0  0  0  0  0  0  0  0  0  0  0
    3.6630    9.9970   25.9660 C   0  0  0  0  0  0  0  0  0  0  0  0
   -2.1680   20.5470   22.6150 C   0  0  0  0  0  0  0  0  0  0  0  0
    0.1280   12.9480   26.7100 C   0  0  0  0  0  0  0  0  0  0  0  0
   -1.5520   13.3540   28.3050 O   0  0  0  0  0  0  0  0  0  0  0  0
   -1.3290   15.2460   24.6380 O   0  0  0  0  0  0  0  0  0  0  0  0
   -0.6430   15.1720   27.2670 O   0  0  0  0  0  0  0  0  0  0  0  0
   -2.5790   20.4290   24.0720 C   0  0  0  0  0  0  0  0  0  0  0  0
    4.5700   10.8320   25.2990 C   0  0  0  0  0  0  0  0  0  0  0  0
   -2.9780   16.9060   24.0670 C   0  0  3  0  0  0  0  0  0  0  0  0
   -2.3010   15.8980   24.9680 C   0  0  0  0  0  0  0  0  0  0  0  0
   -2.1360   19.5100   20.4850 O   0  0  0  0  0  0  0  0  0  0  0  0
    1.6300   11.4430   26.3220 C   0  0  0  0  0  0  0  0  0  0  0  0
    4.3840   12.2270   25.1110 C   0  0  0  0  0  0  0  0  0  0  0  0
   -4.4640   19.0470   23.1330 C   0  0  0  0  0  0  0  0  0  0  0  0
    2.3880   10.2540   26.4240 C   0  0  0  0  0  0  0  0  0  0  0  0
    1.9550   12.5970   25.5900 C   0  0  3  0  0  0  0  0  0  0  0  0
   -3.0350   17.7060   26.3910 C   0  0  3  0  0  0  0  0  0  0  0  0
  1  7  1  0  0  0  0
  1 21  1  0  0  0  0
  1 28  1  0  0  0  0
  2  5  1  0  0  0  0
  2 13  1  0  0  0  0
  3 17  2  0  0  0  0
  3 30  1  0  0  0  0
  4 10  1  0  0  0  0
  4 16  1  0  0  0  0
  4 25  2  0  0  0  0
  5 31  1  0  0  0  0
  6 10  1  0  0  0  0
  6 23  1  0  0  0  0
  7 23  1  0  0  0  0
  7 31  1  0  0  0  0
  8 17  1  0  0  0  0
  8 18  2  0  0  0  0
  8 20  1  0  0  0  0
  9 11  1  0  0  0  0
 10 28  1  0  0  0  0
 11 13  1  0  0  0  0
 11 24  1  0  0  0  0
 11 31  1  0  0  0  0
 12 27  2  0  0  0  0
 12 30  1  0  0  0  0
 13 20  1  0  0  0  0
 14 17  1  0  0  0  0
 14 26  1  0  0  0  0
 15 22  2  0  0  0  0
 15 29  1  0  0  0  0
 16 21  2  0  0  0  0
 19 24  2  0  0  0  0
 22 27  1  0  0  0  0
 23 24  1  0  0  0  0
 26 29  2  0  0  0  0
 26 30  1  0  0  0  0
M  END
>  <Original_Directory>
5hui_A_rec_3ghw_ghw_lig_tt_docked_0_pocket10

>  <Original_Filename>
5hui_A_rec_3ghw_ghw_lig_tt_docked_0_pocket10_gen_sample_1.sdf

>  <Molecule_ID>
sample_1

>  <logS>
-4.4115

$$$$