/tmp/tmp9be8_8a6
  MOE2022           3D

 17 20  0  0  1  0  0  0  0  0999 V2000
   24.3540   16.5950   40.9840 C   0  0  0  0  0  0  0  0  0  0  0  0
   23.3140   18.8220   40.5920 C   0  0  3  0  0  0  0  0  0  0  0  0
   19.4530   20.9440   38.1830 N   0  0  0  0  0  0  0  0  0  0  0  0
   20.4110   20.4170   37.3530 C   0  0  0  0  0  0  0  0  0  0  0  0
   25.2140   17.5190   38.8780 C   0  0  3  0  0  0  0  0  0  0  0  0
   23.4500   19.2000   39.1760 N   0  0  0  0  0  0  0  0  0  0  0  0
   22.2490   19.8970   38.9050 C   0  0  0  0  0  0  0  0  0  0  0  0
   24.5850   18.1180   41.0670 C   0  0  3  0  0  0  0  0  0  0  0  0
   19.5460   21.3220   39.5010 C   0  0  0  0  0  0  0  0  0  0  0  0
   25.7040   18.3960   40.0500 C   0  0  0  0  0  0  0  0  0  0  0  0
   20.5460   21.0420   40.3830 C   0  0  0  0  0  0  0  0  0  0  0  0
   21.6530   19.9240   37.5930 C   0  0  0  0  0  0  0  0  0  0  0  0
   23.9110   18.1200   38.2940 C   0  0  0  0  0  0  0  0  0  0  0  0
   21.7850   20.4100   40.1200 C   0  0  0  0  0  0  0  0  0  0  0  0
   22.8150   20.1340   41.1890 C   0  0  0  0  0  0  0  0  0  0  0  0
   25.6420   15.1510   39.4980 O   0  0  0  0  0  0  0  0  0  0  0  0
   24.7220   16.2170   39.5570 C   0  0  3  0  0  0  0  0  0  0  0  0
  1  8  1  0  0  0  0
  1 17  1  0  0  0  0
  2  6  1  0  0  0  0
  2  8  1  0  0  0  0
  2 15  1  0  0  0  0
  3  4  2  0  0  0  0
  3  9  1  0  0  0  0
  4 12  1  0  0  0  0
  5 10  1  0  0  0  0
  5 13  1  0  0  0  0
  5 17  1  0  0  0  0
  6  7  1  0  0  0  0
  6 13  1  0  0  0  0
  7 12  2  0  0  0  0
  7 14  1  0  0  0  0
  8 10  1  0  0  0  0
  9 11  1  0  0  0  0
 11 14  2  0  0  0  0
 14 15  1  0  0  0  0
 16 17  1  0  0  0  0
M  END
>  <Original_Directory>
5awa_A_rec_3w3k_l07_lig_tt_min_0_pocket10

>  <Original_Filename>
5awa_A_rec_3w3k_l07_lig_tt_min_0_pocket10_gen_sample_12.sdf

>  <Molecule_ID>
sample_12

>  <logS>
-1.53347

$$$$