/tmp/tmpwx_cjism
  MOE2022           3D

 24 28  0  0  0  0  0  0  0  0999 V2000
  135.8240  144.5520 -274.6860 C   0  0  0  0  0  0  0  0  0  0  0  0
  137.8850  145.4810 -273.0980 C   0  0  0  0  0  0  0  0  0  0  0  0
  136.3450  146.1330 -270.7300 C   0  0  0  0  0  0  0  0  0  0  0  0
  136.2690  146.7870 -271.9500 C   0  0  0  0  0  0  0  0  0  0  0  0
  135.7560  148.0290 -272.0460 N   0  0  0  0  0  0  0  0  0  0  0  0
  135.7460  145.7530 -274.0100 C   0  0  0  0  0  0  0  0  0  0  0  0
  135.8490  148.9470 -271.0660 C   0  0  0  0  0  0  0  0  0  0  0  0
  139.8070  146.6990 -267.8230 N   0  0  0  0  0  0  0  0  0  0  0  0
  136.6710  146.1090 -273.0860 N   0  0  0  0  0  0  0  0  0  0  0  0
  138.8270  144.9510 -268.8270 C   0  0  0  0  0  0  0  0  0  0  0  0
  139.9860  145.4110 -268.2020 C   0  0  0  0  0  0  0  0  0  0  0  0
  141.0180  144.7610 -267.9580 O   0  0  0  0  0  0  0  0  0  0  0  0
  139.1910  143.6500 -273.2040 C   0  0  0  0  0  0  0  0  0  0  0  0
  136.9940  143.8040 -274.5580 C   0  0  0  0  0  0  0  0  0  0  0  0
  136.8570  147.8910 -269.1200 C   0  0  0  0  0  0  0  0  0  0  0  0
  138.0020  146.0270 -268.9170 C   0  0  0  0  0  0  0  0  0  0  0  0
  138.5430  146.9990 -268.1230 C   0  0  0  0  0  0  0  0  0  0  0  0
  137.7770  148.0850 -268.1550 N   0  0  0  0  0  0  0  0  0  0  0  0
  137.9690  144.1900 -273.6440 C   0  0  0  0  0  0  0  0  0  0  0  0
  137.2650  142.8920 -275.5200 O   0  0  0  0  0  0  0  0  0  0  0  0
  136.1860  148.9120 -269.7600 C   0  0  0  0  0  0  0  0  0  0  0  0
  137.0070  146.6210 -269.6100 C   0  0  0  0  0  0  0  0  0  0  0  0
  139.1110  145.8040 -272.4930 C   0  0  0  0  0  0  0  0  0  0  0  0
  139.9000  144.6600 -272.5520 C   0  0  0  0  0  0  0  0  0  0  0  0
  1  6  2  0  0  0  0
  1 14  1  0  0  0  0
  2  9  1  0  0  0  0
  2 19  1  0  0  0  0
  2 23  2  0  0  0  0
  3  4  2  0  0  0  0
  3 22  1  0  0  0  0
  4  5  1  0  0  0  0
  4  9  1  0  0  0  0
  5  7  2  0  0  0  0
  6  9  1  0  0  0  0
  7 21  1  0  0  0  0
  8 11  1  0  0  0  0
  8 17  2  0  0  0  0
 10 11  1  0  0  0  0
 10 16  1  0  0  0  0
 11 12  2  0  0  0  0
 13 19  1  0  0  0  0
 13 24  2  0  0  0  0
 14 19  2  0  0  0  0
 14 20  1  0  0  0  0
 15 18  1  0  0  0  0
 15 21  2  0  0  0  0
 15 22  1  0  0  0  0
 16 17  1  0  0  0  0
 16 22  2  0  0  0  0
 17 18  1  0  0  0  0
 23 24  1  0  0  0  0
M  END
>  <Original_Directory>
5lgw_A_rec_4u2z_fmo_lig_tt_min_0_pocket10

>  <Original_Filename>
5lgw_A_rec_4u2z_fmo_lig_tt_min_0_pocket10_gen_sample_5.sdf

>  <Molecule_ID>
sample_5

>  <logS>
-4.0409498

$$$$