/tmp/tmpsnjze2ii
  MOE2022           3D

 13 14  0  0  1  0  0  0  0  0999 V2000
   54.0500  108.4770   32.4990 C   0  0  0  0  0  0  0  0  0  0  0  0
   54.1750  108.9820   31.3890 O   0  0  0  0  0  0  0  0  0  0  0  0
   55.5480  108.6450   35.9280 C   0  0  0  0  0  0  0  0  0  0  0  0
   54.1420  106.8110   34.9270 C   0  0  0  0  0  0  0  0  0  0  0  0
   55.0490  108.7340   33.5720 C   0  0  0  0  0  0  0  0  0  0  0  0
   56.0440  109.7260   33.4250 C   0  0  0  0  0  0  0  0  0  0  0  0
   56.7000  109.4110   35.7070 C   0  0  0  0  0  0  0  0  0  0  0  0
   53.4350  107.2550   32.5630 O   0  0  0  0  0  0  0  0  0  0  0  0
   54.8540  108.1330   34.8380 C   0  0  0  0  0  0  0  0  0  0  0  0
   57.0520  109.7920   34.3970 C   0  0  0  0  0  0  0  0  0  0  0  0
   53.5560  105.1250   33.3180 C   0  0  0  0  0  0  0  0  0  0  0  0
   53.1790  106.5430   33.7760 C   0  0  3  0  0  0  0  0  0  0  0  0
   56.0880  110.5150   32.3270 O   0  0  0  0  0  0  0  0  0  0  0  0
  1  2  2  0  0  0  0
  1  5  1  0  0  0  0
  1  8  1  0  0  0  0
  3  7  2  0  0  0  0
  3  9  1  0  0  0  0
  4  9  1  0  0  0  0
  4 12  1  0  0  0  0
  5  6  1  0  0  0  0
  5  9  2  0  0  0  0
  6 10  2  0  0  0  0
  6 13  1  0  0  0  0
  7 10  1  0  0  0  0
  8 12  1  0  0  0  0
 11 12  1  0  0  0  0
M  END
>  <Original_Directory>
3qpp_A_rec_4ajg_f07_lig_tt_docked_1_pocket10

>  <Original_Filename>
3qpp_A_rec_4ajg_f07_lig_tt_docked_1_pocket10_gen_sample_3.sdf

>  <Molecule_ID>
sample_3

>  <logS>
-1.91574

$$$$