/tmp/tmp2d1b5opj
  MOE2022           3D

 21 24  0  0  1  0  0  0  0  0999 V2000
   -8.1160   31.4460   11.8650 C   0  0  0  0  0  0  0  0  0  0  0  0
   -4.6580   29.3110    7.1900 C   0  0  3  0  0  0  0  0  0  0  0  0
   -7.8490   30.1120   12.1630 C   0  0  0  0  0  0  0  0  0  0  0  0
   -6.3460   29.0060    8.9580 C   0  0  0  0  0  0  0  0  0  0  0  0
   -7.5930   29.2180   11.1140 C   0  0  0  0  0  0  0  0  0  0  0  0
   -3.3890   27.6180    6.0480 C   0  0  3  0  0  0  0  0  0  0  0  0
   -5.6540   27.8360    9.3390 C   0  0  0  0  0  0  0  0  0  0  0  0
   -7.8740   27.9120   11.3210 N   0  0  0  0  0  0  0  0  0  0  0  0
   -2.6530   27.9700    7.3150 C   0  0  3  0  0  0  0  0  0  0  0  0
   -7.2990   26.8390   10.7940 C   0  0  0  0  0  0  0  0  0  0  0  0
   -2.6520   28.0330    4.9450 F   0  0  0  0  0  0  0  0  0  0  0  0
   -3.6240   28.7810    8.1710 C   0  0  1  0  0  0  0  0  0  0  0  0
   -2.9750   29.8810    8.7880 O   0  0  0  0  0  0  0  0  0  0  0  0
   -7.6790   31.0000    9.5250 C   0  0  0  0  0  0  0  0  0  0  0  0
   -5.9880   29.5560    7.7470 N   0  0  0  0  0  0  0  0  0  0  0  0
   -4.7510   28.2830    6.0670 C   0  0  0  0  0  0  0  0  0  0  0  0
   -7.2090   29.7200    9.8520 C   0  0  0  0  0  0  0  0  0  0  0  0
   -8.0840   31.8720   10.5380 C   0  0  0  0  0  0  0  0  0  0  0  0
   -6.3050   26.7250    9.8400 C   0  0  0  0  0  0  0  0  0  0  0  0
   -1.4210   28.6530    7.1560 O   0  0  0  0  0  0  0  0  0  0  0  0
   -4.1470   27.8430    9.2440 C   0  0  0  0  0  0  0  0  0  0  0  0
  1  3  1  0  0  0  0
  1 18  2  0  0  0  0
  2 12  1  0  0  0  0
  2 15  1  0  0  0  0
  2 16  1  0  0  0  0
  3  5  1  0  0  0  0
  4  7  2  0  0  0  0
  4 15  1  0  0  0  0
  4 17  1  0  0  0  0
  5  8  2  0  0  0  0
  5 17  1  0  0  0  0
  6  9  1  0  0  0  0
  6 11  1  0  0  0  0
  6 16  1  0  0  0  0
  7 19  1  0  0  0  0
  7 21  1  0  0  0  0
  8 10  1  0  0  0  0
  9 12  1  0  0  0  0
  9 20  1  0  0  0  0
 10 19  2  0  0  0  0
 12 13  1  0  0  0  0
 12 21  1  0  0  0  0
 14 17  2  0  0  0  0
 14 18  1  0  0  0  0
M  END
>  <Original_Directory>
4uzh_A_rec_4uzh_jve_lig_tt_min_0_pocket10

>  <Original_Filename>
4uzh_A_rec_4uzh_jve_lig_tt_min_0_pocket10_gen_sample_15.sdf

>  <Molecule_ID>
sample_15

>  <logS>
-2.1379399

$$$$