/tmp/tmpk0y_798i
  MOE2022           3D

  9  8  0  0  0  0  0  0  0  0999 V2000
   21.0890   31.4270   19.4150 O   0  0  0  0  0  0  0  0  0  0  0  0
   21.1820   33.0760   15.2440 O   0  0  0  0  0  0  0  0  0  0  0  0
   21.6110   31.3050   18.0340 P   0  0  0  0  0  0  0  0  0  0  0  0
   19.5130   34.1970   16.6010 O   0  0  0  0  0  0  0  0  0  0  0  0
   18.8580   32.2290   15.2700 O   0  0  0  0  0  0  0  0  0  0  0  0
   21.8290   29.9040   17.5860 O   0  0  0  0  0  0  0  0  0  0  0  0
   22.7980   32.1650   17.7870 O   0  0  0  0  0  0  0  0  0  0  0  0
   20.4200   31.9140   17.1870 O   0  0  0  0  0  0  0  0  0  0  0  0
   19.9500   32.8700   16.0360 P   0  0  0  0  0  0  0  0  0  0  0  0
  1  3  1  0  0  0  0
  2  9  2  0  0  0  0
  3  6  2  0  0  0  0
  3  7  1  0  0  0  0
  3  8  1  0  0  0  0
  4  9  1  0  0  0  0
  5  9  1  0  0  0  0
  8  9  1  0  0  0  0
M  END
>  <Original_Directory>
2xh0_B_rec_1l8p_pah_lig_tt_docked_0_pocket10

>  <Original_Filename>
2xh0_B_rec_1l8p_pah_lig_tt_docked_0_pocket10_gen_sample_19.sdf

>  <Molecule_ID>
sample_19

>  <logS>
1.38202

$$$$