/tmp/tmp2mfheclk
  MOE2022           3D

  9  9  0  0  0  0  0  0  0  0999 V2000
   19.7690   33.4840   16.4590 C   0  0  0  0  0  0  0  0  0  0  0  0
   20.7430   33.3850   17.5240 C   0  0  0  0  0  0  0  0  0  0  0  0
   22.7510   32.3030   18.0720 O   0  0  0  0  0  0  0  0  0  0  0  0
   20.9170   30.9520   16.9290 C   0  0  0  0  0  0  0  0  0  0  0  0
   21.3940   32.0790   17.8420 C   0  0  0  0  0  0  0  0  0  0  0  0
   20.3410   31.2650   15.7470 C   0  0  0  0  0  0  0  0  0  0  0  0
   19.7460   32.4940   15.5200 N   0  0  0  0  0  0  0  0  0  0  0  0
   18.8570   34.3150   16.5720 O   0  0  0  0  0  0  0  0  0  0  0  0
   20.9200   31.6950   19.1210 O   0  0  0  0  0  0  0  0  0  0  0  0
  1  2  1  0  0  0  0
  1  7  1  0  0  0  0
  1  8  2  0  0  0  0
  2  5  1  0  0  0  0
  3  5  1  0  0  0  0
  4  5  1  0  0  0  0
  4  6  1  0  0  0  0
  5  9  1  0  0  0  0
  6  7  2  0  0  0  0
M  END
>  <Original_Directory>
2xh0_B_rec_1l8p_pah_lig_tt_docked_0_pocket10

>  <Original_Filename>
2xh0_B_rec_1l8p_pah_lig_tt_docked_0_pocket10_gen_sample_5.sdf

>  <Molecule_ID>
sample_5

>  <logS>
0.33127001

$$$$