/tmp/tmpojy4h9tm
  MOE2022           3D

 11 12  0  0  1  0  0  0  0  0999 V2000
   -1.3800   36.0190   24.4610 C   0  0  0  0  0  0  0  0  0  0  0  0
   -1.2950   34.7190   24.9040 N   0  0  0  0  0  0  0  0  0  0  0  0
   -0.0740   35.3110   22.4190 C   0  0  0  0  0  0  0  0  0  0  0  0
   -1.6280   36.9830   25.1700 O   0  0  0  0  0  0  0  0  0  0  0  0
   -0.7990   32.3960   24.6390 N   0  0  0  0  0  0  0  0  0  0  0  0
   -0.3640   33.9140   22.8210 C   0  0  3  0  0  0  0  0  0  0  0  0
    0.1810   32.8340   22.1260 C   0  0  0  0  0  0  0  0  0  0  0  0
   -0.0480   31.5160   23.9540 C   0  0  0  0  0  0  0  0  0  0  0  0
    0.3400   31.6290   22.6760 N   0  0  0  0  0  0  0  0  0  0  0  0
   -0.7600   33.6790   24.1550 C   0  0  0  0  0  0  0  0  0  0  0  0
   -0.5980   36.2810   23.3220 N   0  0  0  0  0  0  0  0  0  0  0  0
  1  2  1  0  0  0  0
  1  4  2  0  0  0  0
  1 11  1  0  0  0  0
  2 10  2  0  0  0  0
  3  6  1  0  0  0  0
  3 11  1  0  0  0  0
  5  8  1  0  0  0  0
  5 10  1  0  0  0  0
  6  7  1  0  0  0  0
  6 10  1  0  0  0  0
  7  9  2  0  0  0  0
  8  9  1  0  0  0  0
M  END
>  <Original_Directory>
1sqo_A_rec_1fv9_172_lig_tt_docked_5_pocket10

>  <Original_Filename>
1sqo_A_rec_1fv9_172_lig_tt_docked_5_pocket10_gen_sample_19.sdf

>  <Molecule_ID>
sample_19

>  <logS>
0.02661

$$$$