/tmp/tmp1ujkqi7r
  MOE2022           3D

 11 12  0  0  1  0  0  0  0  0999 V2000
   -0.0610   32.3790   24.8360 C   0  0  0  0  0  0  0  0  0  0  0  0
   -0.7580   33.5120   25.1900 C   0  0  0  0  0  0  0  0  0  0  0  0
   -1.1050   33.3800   22.2250 C   0  0  0  0  0  0  0  0  0  0  0  0
   -1.3510   36.9820   24.3490 C   0  0  0  0  0  0  0  0  0  0  0  0
   -1.0700   34.5700   22.9810 C   0  0  3  0  0  0  0  0  0  0  0  0
   -1.5830   35.7820   25.0100 C   0  0  0  0  0  0  0  0  0  0  0  0
   -0.0970   31.6500   23.6670 C   0  0  0  0  0  0  0  0  0  0  0  0
   -0.9930   36.9840   22.9980 C   0  0  0  0  0  0  0  0  0  0  0  0
   -0.7160   32.1120   22.4980 C   0  0  0  0  0  0  0  0  0  0  0  0
   -1.2000   34.5770   24.3910 C   0  0  0  0  0  0  0  0  0  0  0  0
   -0.9510   35.7870   22.2890 C   0  0  0  0  0  0  0  0  0  0  0  0
  1  2  1  0  0  0  0
  1  7  2  0  0  0  0
  2 10  2  0  0  0  0
  3  5  1  0  0  0  0
  3  9  2  0  0  0  0
  4  6  2  0  0  0  0
  4  8  1  0  0  0  0
  5 10  1  0  0  0  0
  5 11  1  0  0  0  0
  6 10  1  0  0  0  0
  7  9  1  0  0  0  0
  8 11  2  0  0  0  0
M  END
>  <Original_Directory>
1sqo_A_rec_1fv9_172_lig_tt_docked_5_pocket10

>  <Original_Filename>
1sqo_A_rec_1fv9_172_lig_tt_docked_5_pocket10_gen_sample_15.sdf

>  <Molecule_ID>
sample_15

>  <logS>
-2.49684

$$$$