/tmp/tmpy9c9j4fy
  MOE2022           3D

 26 29  0  0  1  0  0  0  0  0999 V2000
    8.3800   43.1940   20.0960 C   0  0  0  0  0  0  0  0  0  0  0  0
   11.3340   46.3700   20.9520 C   0  0  0  0  0  0  0  0  0  0  0  0
    9.1010   45.4900   20.6390 C   0  0  0  0  0  0  0  0  0  0  0  0
    8.4870   44.5520   19.7680 C   0  0  0  0  0  0  0  0  0  0  0  0
    8.0200   42.7330   17.7570 C   0  0  0  0  0  0  0  0  0  0  0  0
    8.5580   40.4900   17.7750 C   0  0  0  0  0  0  0  0  0  0  0  0
    8.6020   45.6870   21.9210 C   0  0  0  0  0  0  0  0  0  0  0  0
   12.6430   44.6940   22.2660 C   0  0  0  0  0  0  0  0  0  0  0  0
    7.7550   44.0630   17.5020 C   0  0  0  0  0  0  0  0  0  0  0  0
   10.6520   45.9090   23.2140 C   0  0  0  0  0  0  0  0  0  0  0  0
    8.4710   41.6480   16.8390 C   0  0  0  0  0  0  0  0  0  0  0  0
   10.1880   46.2360   20.1870 C   0  0  0  0  0  0  0  0  0  0  0  0
    9.4850   39.5040   17.6540 O   0  0  0  0  0  0  0  0  0  0  0  0
    8.0050   44.9790   18.5240 C   0  0  0  0  0  0  0  0  0  0  0  0
    9.5220   38.5620   18.6530 C   0  0  0  0  0  0  0  0  0  0  0  0
    7.8980   46.3240   18.2780 O   0  0  0  0  0  0  0  0  0  0  0  0
   13.7040   46.3890   23.9010 C   0  0  0  0  0  0  0  0  0  0  0  0
    8.0280   42.2830   19.0950 C   0  0  0  0  0  0  0  0  0  0  0  0
   13.5120   44.9190   23.5020 C   0  0  3  0  0  0  0  0  0  0  0  0
    9.3010   46.1400   23.0300 C   0  0  0  0  0  0  0  0  0  0  0  0
    8.1120   39.8640   20.0550 C   0  0  0  0  0  0  0  0  0  0  0  0
    8.7010   46.9480   23.9540 O   0  0  0  0  0  0  0  0  0  0  0  0
   14.7770   44.2980   23.2600 O   0  0  0  0  0  0  0  0  0  0  0  0
    8.6680   38.6260   19.7530 C   0  0  0  0  0  0  0  0  0  0  0  0
   11.5120   45.6880   22.1440 C   0  0  3  0  0  0  0  0  0  0  0  0
    8.2250   40.8630   19.0890 C   0  0  0  0  0  0  0  0  0  0  0  0
  1  4  1  0  0  0  0
  1 18  2  0  0  0  0
  2 12  2  0  0  0  0
  2 25  1  0  0  0  0
  3  4  1  0  0  0  0
  3  7  2  0  0  0  0
  3 12  1  0  0  0  0
  4 14  2  0  0  0  0
  5  9  2  0  0  0  0
  5 11  1  0  0  0  0
  5 18  1  0  0  0  0
  6 11  2  0  0  0  0
  6 13  1  0  0  0  0
  6 26  1  0  0  0  0
  7 20  1  0  0  0  0
  8 19  1  0  0  0  0
  8 25  1  0  0  0  0
  9 14  1  0  0  0  0
 10 20  2  0  0  0  0
 10 25  1  0  0  0  0
 13 15  1  0  0  0  0
 14 16  1  0  0  0  0
 15 24  2  0  0  0  0
 17 19  1  0  0  0  0
 18 26  1  0  0  0  0
 19 23  1  0  0  0  0
 20 22  1  0  0  0  0
 21 24  1  0  0  0  0
 21 26  2  0  0  0  0
M  END
>  <Original_Directory>
1kav_A_rec_2f6t_1c2_lig_tt_min_0_pocket10

>  <Original_Filename>
1kav_A_rec_2f6t_1c2_lig_tt_min_0_pocket10_gen_sample_11.sdf

>  <Molecule_ID>
sample_11

>  <logS>
-4.3745999

$$$$