/tmp/tmpcf_h0qr6
  MOE2022           3D

 26 27  0  0  1  0  0  0  0  0999 V2000
    7.3730   43.4630   19.2620 C   0  0  0  0  0  0  0  0  0  0  0  0
    6.8850   41.0790   17.5470 C   0  0  0  0  0  0  0  0  0  0  0  0
   10.4130   46.8810   20.1770 N   0  0  0  0  0  0  0  0  0  0  0  0
   14.4460   43.8840   23.3510 O   0  0  0  0  0  0  0  0  0  0  0  0
   13.7980   44.9150   23.3280 C   0  0  0  0  0  0  0  0  0  0  0  0
   15.3510   45.7910   24.8620 C   0  0  0  0  0  0  0  0  0  0  0  0
   14.1300   46.0250   24.1210 O   0  0  0  0  0  0  0  0  0  0  0  0
    8.3660   39.8810   19.0460 N   0  0  0  0  0  0  0  0  0  0  0  0
    8.0720   42.2540   19.5020 C   0  0  0  0  0  0  0  0  0  0  0  0
   10.1700   45.4360   22.2840 C   0  0  2  0  0  0  0  0  0  0  0  0
    5.8760   43.4880   19.1790 C   0  0  0  0  0  0  0  0  0  0  0  0
    7.7940   40.9880   18.7590 C   0  0  0  0  0  0  0  0  0  0  0  0
   10.1490   43.9000   22.2470 C   0  0  0  0  0  0  0  0  0  0  0  0
   12.7210   45.1050   22.3060 C   0  0  0  0  0  0  0  0  0  0  0  0
    9.1910   45.9030   23.3500 C   0  0  0  0  0  0  0  0  0  0  0  0
    7.3470   41.4890   16.4740 O   0  0  0  0  0  0  0  0  0  0  0  0
   11.5700   46.6290   23.8730 O   0  0  0  0  0  0  0  0  0  0  0  0
    9.1370   44.6960   20.2370 C   0  0  0  0  0  0  0  0  0  0  0  0
    9.0650   42.2980   20.4910 C   0  0  0  0  0  0  0  0  0  0  0  0
    8.7990   45.0940   24.2080 O   0  0  0  0  0  0  0  0  0  0  0  0
    5.6720   40.7410   17.6800 O   0  0  0  0  0  0  0  0  0  0  0  0
    8.1100   44.6490   19.2980 C   0  0  0  0  0  0  0  0  0  0  0  0
    9.6650   45.9040   20.9230 C   0  0  3  0  0  0  0  0  0  0  0  0
    8.8500   47.1180   23.3030 O   0  0  0  0  0  0  0  0  0  0  0  0
    9.4430   43.5450   20.9670 C   0  0  0  0  0  0  0  0  0  0  0  0
   11.5560   46.0110   22.6060 C   0  0  3  0  0  0  0  0  0  0  0  0
  1  9  2  0  0  0  0
  1 11  1  0  0  0  0
  1 22  1  0  0  0  0
  2 12  1  0  0  0  0
  2 16  2  0  0  0  0
  2 21  1  0  0  0  0
  3 23  1  0  0  0  0
  4  5  2  0  0  0  0
  5  7  1  0  0  0  0
  5 14  1  0  0  0  0
  6  7  1  0  0  0  0
  8 12  2  0  0  0  0
  9 12  1  0  0  0  0
  9 19  1  0  0  0  0
 10 13  1  0  0  0  0
 10 15  1  0  0  0  0
 10 23  1  0  0  0  0
 10 26  1  0  0  0  0
 13 25  1  0  0  0  0
 14 26  1  0  0  0  0
 15 20  1  0  0  0  0
 15 24  2  0  0  0  0
 17 26  1  0  0  0  0
 18 22  2  0  0  0  0
 18 23  1  0  0  0  0
 18 25  1  0  0  0  0
 19 25  2  0  0  0  0
M  END
>  <Original_Directory>
1kav_A_rec_2f6t_1c2_lig_tt_min_0_pocket10

>  <Original_Filename>
1kav_A_rec_2f6t_1c2_lig_tt_min_0_pocket10_gen_sample_2.sdf

>  <Molecule_ID>
sample_2

>  <logS>
-1.92353

$$$$