/tmp/tmpurjrvzgm
  MOE2022           3D

 12 12  0  0  0  0  0  0  0  0999 V2000
   32.6230   66.8190    8.5570 C   0  0  0  0  0  0  0  0  0  0  0  0
   32.3640   67.1940    7.2480 C   0  0  0  0  0  0  0  0  0  0  0  0
   29.6540   66.0140    8.1510 N   0  0  0  0  0  0  0  0  0  0  0  0
   31.2000   67.0410    5.0990 C   0  0  0  0  0  0  0  0  0  0  0  0
   33.4780   66.9250    6.4600 O   0  0  0  0  0  0  0  0  0  0  0  0
   31.6620   67.9940    4.4700 O   0  0  0  0  0  0  0  0  0  0  0  0
   30.5200   65.6560    9.0800 C   0  0  0  0  0  0  0  0  0  0  0  0
   30.7190   66.0360    4.5290 O   0  0  0  0  0  0  0  0  0  0  0  0
   31.1870   67.0250    6.5810 C   0  0  0  0  0  0  0  0  0  0  0  0
   31.7020   66.2570    9.3930 C   0  0  0  0  0  0  0  0  0  0  0  0
   33.8680   66.9900    9.0180 O   0  0  0  0  0  0  0  0  0  0  0  0
   29.9770   66.8880    7.2030 C   0  0  0  0  0  0  0  0  0  0  0  0
  1  2  2  0  0  0  0
  1 10  1  0  0  0  0
  1 11  1  0  0  0  0
  2  5  1  0  0  0  0
  2  9  1  0  0  0  0
  3  7  2  0  0  0  0
  3 12  1  0  0  0  0
  4  6  2  0  0  0  0
  4  8  1  0  0  0  0
  4  9  1  0  0  0  0
  7 10  1  0  0  0  0
  9 12  2  0  0  0  0
M  END
>  <Original_Directory>
1qx1_A_rec_3dx2_mzb_lig_tt_min_0_pocket10

>  <Original_Filename>
1qx1_A_rec_3dx2_mzb_lig_tt_min_0_pocket10_gen_sample_1.sdf

>  <Molecule_ID>
sample_1

>  <logS>
0.1194

$$$$