/tmp/tmp1p4lax5c
  MOE2022           3D

 27 31  0  0  1  0  0  0  0  0999 V2000
   43.0730   83.3770   88.1970 C   0  0  0  0  0  0  0  0  0  0  0  0
   40.8980   77.3050   85.6510 C   0  0  3  0  0  0  0  0  0  0  0  0
   44.1290   74.9640   87.5610 C   0  0  1  0  0  0  0  0  0  0  0  0
   41.5270   77.9030   86.9110 C   0  0  3  0  0  0  0  0  0  0  0  0
   43.0470   75.7870   86.9050 C   0  0  3  0  0  0  0  0  0  0  0  0
   40.9060   81.4860   87.1360 C   0  0  0  0  0  0  0  0  0  0  0  0
   41.9410   79.3340   86.5340 C   0  0  0  0  0  0  0  0  0  0  0  0
   39.9320   80.2210   85.1630 C   0  0  0  0  0  0  0  0  0  0  0  0
   42.7040   82.1360   88.7220 C   0  0  0  0  0  0  0  0  0  0  0  0
   42.7970   77.1870   87.3580 C   0  0  0  0  0  0  0  0  0  0  0  0
   45.5470   75.3730   87.1710 C   0  0  0  0  0  0  0  0  0  0  0  0
   45.2580   72.8680   89.2410 C   0  0  0  0  0  0  0  0  0  0  0  0
   39.4890   77.7910   85.5720 N   0  0  0  0  0  0  0  0  0  0  0  0
   46.3700   74.1110   87.4160 C   0  0  0  0  0  0  0  0  0  0  0  0
   45.3830   72.9650   87.7140 C   0  0  3  0  0  0  0  0  0  0  0  0
   41.5590   81.4800   88.3540 C   0  0  0  0  0  0  0  0  0  0  0  0
   41.0290   83.8890   86.8350 C   0  0  0  0  0  0  0  0  0  0  0  0
   39.4490   78.9020   84.5930 C   0  0  0  0  0  0  0  0  0  0  0  0
   44.6560   84.0000   88.5760 Cl  0  0  0  0  0  0  0  0  0  0  0  0
   42.4180   75.4100   85.5770 C   0  0  0  0  0  0  0  0  0  0  0  0
   43.9520   75.1160   89.0810 C   0  0  0  0  0  0  0  0  0  0  0  0
   40.4310   82.6660   86.5660 C   0  0  0  0  0  0  0  0  0  0  0  0
   44.5560   74.0070   89.9280 C   0  0  0  0  0  0  0  0  0  0  0  0
   42.2270   84.1470   87.4240 C   0  0  0  0  0  0  0  0  0  0  0  0
   40.6480   80.1450   86.5020 C   0  0  3  0  0  0  0  0  0  0  0  0
   40.9270   75.7820   85.6900 C   0  0  0  0  0  0  0  0  0  0  0  0
   44.0440   73.4880   87.1820 C   0  0  0  0  0  0  0  0  0  0  0  0
  1  9  1  0  0  0  0
  1 19  1  0  0  0  0
  1 24  2  0  0  0  0
  2  4  1  0  0  0  0
  2 13  1  0  0  0  0
  2 26  1  0  0  0  0
  3  5  1  0  0  0  0
  3 11  1  0  0  0  0
  3 21  1  0  0  0  0
  3 27  1  0  0  0  0
  4  7  1  0  0  0  0
  4 10  1  0  0  0  0
  5 10  1  0  0  0  0
  5 20  1  0  0  0  0
  6 16  2  0  0  0  0
  6 22  1  0  0  0  0
  6 25  1  0  0  0  0
  7 25  1  0  0  0  0
  8 18  1  0  0  0  0
  8 25  1  0  0  0  0
  9 16  1  0  0  0  0
 11 14  1  0  0  0  0
 12 15  1  0  0  0  0
 12 23  2  0  0  0  0
 13 18  1  0  0  0  0
 14 15  1  0  0  0  0
 15 27  1  0  0  0  0
 17 22  2  0  0  0  0
 17 24  1  0  0  0  0
 20 26  1  0  0  0  0
 21 23  1  0  0  0  0
M  END
>  <Original_Directory>
5t2d_A_rec_5t2b_74o_lig_tt_docked_3_pocket10

>  <Original_Filename>
5t2d_A_rec_5t2b_74o_lig_tt_docked_3_pocket10_gen_sample_11.sdf

>  <Molecule_ID>
sample_11

>  <logS>
-6.1540399

$$$$