/tmp/tmpk3uf2fnk
  MOE2022           3D

 11 12  0  0  0  0  0  0  0  0999 V2000
   11.1490  -14.1490   40.6420 C   0  0  0  0  0  0  0  0  0  0  0  0
   11.9750  -15.1750   39.9340 C   0  0  0  0  0  0  0  0  0  0  0  0
    9.8180  -14.4590   40.9040 C   0  0  0  0  0  0  0  0  0  0  0  0
   11.9610  -11.9540   40.6820 O   0  0  0  0  0  0  0  0  0  0  0  0
   11.6490  -13.0490   41.3460 C   0  0  0  0  0  0  0  0  0  0  0  0
    8.9920  -15.0060   39.7730 C   0  0  0  0  0  0  0  0  0  0  0  0
    9.7450  -16.0570   38.9860 C   0  0  0  0  0  0  0  0  0  0  0  0
    9.2360  -14.0980   42.1090 C   0  0  0  0  0  0  0  0  0  0  0  0
   10.0190  -13.4630   43.0700 C   0  0  0  0  0  0  0  0  0  0  0  0
   11.2740  -12.9710   42.6990 C   0  0  0  0  0  0  0  0  0  0  0  0
   11.2150  -15.7830   38.7640 C   0  0  0  0  0  0  0  0  0  0  0  0
  1  2  1  0  0  0  0
  1  3  2  0  0  0  0
  1  5  1  0  0  0  0
  2 11  1  0  0  0  0
  3  6  1  0  0  0  0
  3  8  1  0  0  0  0
  4  5  1  0  0  0  0
  5 10  2  0  0  0  0
  6  7  1  0  0  0  0
  7 11  1  0  0  0  0
  8  9  2  0  0  0  0
  9 10  1  0  0  0  0
M  END
>  <Original_Directory>
1eob_A_rec_1eoc_4nc_lig_tt_docked_2_pocket10

>  <Original_Filename>
1eob_A_rec_1eoc_4nc_lig_tt_docked_2_pocket10_gen_sample_11.sdf

>  <Molecule_ID>
sample_11

>  <logS>
-2.5857201

$$$$