/tmp/tmpmf2sdbts
  MOE2022           3D

 27 32  0  0  1  0  0  0  0  0999 V2000
   10.1930   14.7030  -11.6560 C   0  0  0  0  0  0  0  0  0  0  0  0
    9.7620   15.2950  -10.4680 C   0  0  0  0  0  0  0  0  0  0  0  0
   11.1220   17.0390   -7.5220 C   0  0  3  0  0  0  0  0  0  0  0  0
   12.4410   15.5860  -11.2870 C   0  0  0  0  0  0  0  0  0  0  0  0
    8.3810   18.2940   -9.6390 C   0  0  0  0  0  0  0  0  0  0  0  0
    7.3310   19.1580   -9.5810 C   0  0  0  0  0  0  0  0  0  0  0  0
   10.2190   16.9090   -8.6860 N   0  0  0  0  0  0  0  0  0  0  0  0
    9.5310   14.0760  -12.7190 N   0  0  0  0  0  0  0  0  0  0  0  0
   10.4580   13.7080  -13.6570 C   0  0  0  0  0  0  0  0  0  0  0  0
    8.0860   13.8970  -12.9530 C   0  0  0  0  0  0  0  0  0  0  0  0
   12.0130   16.2130  -10.1230 C   0  0  0  0  0  0  0  0  0  0  0  0
    9.0600   18.2360   -7.2810 C   0  0  0  0  0  0  0  0  0  0  0  0
   13.6030   18.1260  -10.1720 C   0  0  0  0  0  0  0  0  0  0  0  0
    6.6810   19.8460   -8.5740 C   0  0  0  0  0  0  0  0  0  0  0  0
    9.1460   17.7660   -8.5920 C   0  0  3  0  0  0  0  0  0  0  0  0
   10.0760   13.2650  -15.0320 C   0  0  0  0  0  0  0  0  0  0  0  0
   10.6440   16.1380   -9.7760 C   0  0  0  0  0  0  0  0  0  0  0  0
    8.8030   13.9760  -15.4550 C   0  0  0  0  0  0  0  0  0  0  0  0
    7.9570   18.8590   -6.7040 C   0  0  0  0  0  0  0  0  0  0  0  0
   11.5510   14.8110  -12.0350 C   0  0  0  0  0  0  0  0  0  0  0  0
   12.4460   17.6290   -8.0110 C   0  0  0  0  0  0  0  0  0  0  0  0
    7.0230   19.7370   -7.2200 C   0  0  0  0  0  0  0  0  0  0  0  0
    7.7060   13.7620  -14.4300 C   0  0  3  0  0  0  0  0  0  0  0  0
   11.6990   14.1650  -13.3120 C   0  0  0  0  0  0  0  0  0  0  0  0
   13.0030   17.0270   -9.2920 C   0  0  3  0  0  0  0  0  0  0  0  0
   10.3710   17.9960   -6.5760 C   0  0  0  0  0  0  0  0  0  0  0  0
    6.6210   14.5990  -14.8030 O   0  0  0  0  0  0  0  0  0  0  0  0
  1  2  1  0  0  0  0
  1  8  1  0  0  0  0
  1 20  2  0  0  0  0
  2 17  2  0  0  0  0
  3  7  1  0  0  0  0
  3 21  1  0  0  0  0
  3 26  1  0  0  0  0
  4 11  2  0  0  0  0
  4 20  1  0  0  0  0
  5  6  2  0  0  0  0
  5 15  1  0  0  0  0
  6 14  1  0  0  0  0
  7 15  1  0  0  0  0
  7 17  1  0  0  0  0
  8  9  1  0  0  0  0
  8 10  1  0  0  0  0
  9 16  1  0  0  0  0
  9 24  2  0  0  0  0
 10 23  1  0  0  0  0
 11 17  1  0  0  0  0
 11 25  1  0  0  0  0
 12 15  1  0  0  0  0
 12 19  2  0  0  0  0
 12 26  1  0  0  0  0
 13 25  1  0  0  0  0
 14 22  2  0  0  0  0
 16 18  1  0  0  0  0
 18 23  1  0  0  0  0
 19 22  1  0  0  0  0
 20 24  1  0  0  0  0
 21 25  1  0  0  0  0
 23 27  1  0  0  0  0
M  END
>  <Original_Directory>
4wiv_A_rec_4wiv_3p2_lig_tt_min_0_pocket10

>  <Original_Filename>
4wiv_A_rec_4wiv_3p2_lig_tt_min_0_pocket10_gen_sample_5.sdf

>  <Molecule_ID>
sample_5

>  <logS>
-4.4397302

$$$$