/tmp/tmp68v1fz2w
  MOE2022           3D

 21 22  0  0  1  0  0  0  0  0999 V2000
   13.3280    9.5820   19.6820 O   0  0  0  0  0  0  0  0  0  0  0  0
   18.8210    9.7480   11.4890 C   0  0  0  0  0  0  0  0  0  0  0  0
   13.8940   11.3260   18.0580 C   0  0  3  0  0  0  0  0  0  0  0  0
   14.5840   10.2980   17.2070 C   0  0  3  0  0  0  0  0  0  0  0  0
   11.6020   11.0410   19.0320 C   0  0  0  0  0  0  0  0  0  0  0  0
   15.2410    9.2320   17.9370 N   0  0  0  0  0  0  0  0  0  0  0  0
   17.8790   10.5120   12.1630 C   0  0  0  0  0  0  0  0  0  0  0  0
   13.7930   12.6830   17.6620 C   0  0  0  0  0  0  0  0  0  0  0  0
   19.1480    8.7050   14.3060 C   0  0  0  0  0  0  0  0  0  0  0  0
   13.0910   10.9370   19.2940 C   0  0  1  0  0  0  0  0  0  0  0  0
   19.5920    8.0830   13.1440 C   0  0  0  0  0  0  0  0  0  0  0  0
   13.9140   13.2260   20.0970 C   0  0  0  0  0  0  0  0  0  0  0  0
   16.0660   10.8660   13.8080 C   0  0  0  0  0  0  0  0  0  0  0  0
   17.3980   10.3010   13.4680 C   0  0  0  0  0  0  0  0  0  0  0  0
   18.1270    9.6300   14.4430 C   0  0  0  0  0  0  0  0  0  0  0  0
   19.3220    8.5040   11.8510 C   0  0  0  0  0  0  0  0  0  0  0  0
   13.7850   13.6420   18.7470 C   0  0  0  0  0  0  0  0  0  0  0  0
   13.4960   11.8210   20.4700 C   0  0  0  0  0  0  0  0  0  0  0  0
   15.5790   10.9260   16.2670 C   0  0  0  0  0  0  0  0  0  0  0  0
   15.3430   10.6530   14.8490 C   0  0  0  0  0  0  0  0  0  0  0  0
   16.5310   11.5640   16.6950 O   0  0  0  0  0  0  0  0  0  0  0  0
  1 10  1  0  0  0  0
  2  7  1  0  0  0  0
  2 16  2  0  0  0  0
  3  4  1  0  0  0  0
  3  8  1  0  0  0  0
  3 10  1  0  0  0  0
  4  6  1  0  0  0  0
  4 19  1  0  0  0  0
  5 10  1  0  0  0  0
  7 14  1  0  0  0  0
  8 17  2  0  0  0  0
  9 11  2  0  0  0  0
  9 15  1  0  0  0  0
 10 18  1  0  0  0  0
 11 16  1  0  0  0  0
 12 17  1  0  0  0  0
 12 18  1  0  0  0  0
 13 14  1  0  0  0  0
 13 20  1  0  0  0  0
 14 15  2  0  0  0  0
 19 20  1  0  0  0  0
 19 21  2  0  0  0  0
M  END
>  <Original_Directory>
4x6y_A_rec_4y2x_4a0_lig_tt_min_0_pocket10

>  <Original_Filename>
4x6y_A_rec_4y2x_4a0_lig_tt_min_0_pocket10_gen_sample_9.sdf

>  <Molecule_ID>
sample_9

>  <logS>
-1.8678499

$$$$