/tmp/tmpal7dw2bq
  MOE2022           3D

 15 16  0  0  1  0  0  0  0  0999 V2000
    3.5510   10.9000    8.5080 C   0  0  0  0  0  0  0  0  0  0  0  0
    2.1150    8.5930    7.5030 C   0  0  0  0  0  0  0  0  0  0  0  0
    7.4510    5.3770    6.9130 N   0  0  0  0  0  0  0  0  0  0  0  0
    9.2790    6.3410    5.7980 C   0  0  0  0  0  0  0  0  0  0  0  0
    8.2830    5.2020    5.7030 C   0  0  0  0  0  0  0  0  0  0  0  0
    3.3420    8.0880    7.5080 C   0  0  0  0  0  0  0  0  0  0  0  0
    1.5940    9.8260    7.6320 N   0  0  0  0  0  0  0  0  0  0  0  0
    7.2610    6.8110    6.8720 C   0  0  3  0  0  0  0  0  0  0  0  0
    5.6540    8.3500    7.5450 C   0  0  0  0  0  0  0  0  0  0  0  0
    4.3480    9.8580    8.7370 C   0  0  0  0  0  0  0  0  0  0  0  0
    1.5330   11.9810    8.1530 O   0  0  0  0  0  0  0  0  0  0  0  0
    6.3210    7.2010    7.9000 N   0  0  0  0  0  0  0  0  0  0  0  0
    8.7160    7.2150    6.9070 C   0  0  0  0  0  0  0  0  0  0  0  0
    4.4490    8.6740    8.1120 N   0  0  0  0  0  0  0  0  0  0  0  0
    2.1840   10.9380    8.1380 C   0  0  0  0  0  0  0  0  0  0  0  0
  1 10  1  0  0  0  0
  1 15  1  0  0  0  0
  2  6  1  0  0  0  0
  2  7  1  0  0  0  0
  3  5  1  0  0  0  0
  3  8  1  0  0  0  0
  4  5  1  0  0  0  0
  4 13  1  0  0  0  0
  6 14  1  0  0  0  0
  7 15  1  0  0  0  0
  8 12  1  0  0  0  0
  8 13  1  0  0  0  0
  9 12  1  0  0  0  0
  9 14  1  0  0  0  0
 10 14  1  0  0  0  0
 11 15  2  0  0  0  0
M  END
>  <Original_Directory>
4ycy_A_rec_4y3m_45y_lig_tt_min_0_pocket10

>  <Original_Filename>
4ycy_A_rec_4y3m_45y_lig_tt_min_0_pocket10_gen_sample_12.sdf

>  <Molecule_ID>
sample_12

>  <logS>
0.63575

$$$$