/tmp/tmp5t4xpjt7
  MOE2022           3D

 21 24  0  0  1  0  0  0  0  0999 V2000
    9.9140   -0.0110   10.5990 C   0  0  0  0  0  0  0  0  0  0  0  0
   12.2610   -0.8000   11.1730 C   0  0  0  0  0  0  0  0  0  0  0  0
   11.3050   -0.4530   10.2060 C   0  0  0  0  0  0  0  0  0  0  0  0
    8.3830    2.0440   10.9290 C   0  0  0  0  0  0  0  0  0  0  0  0
   13.8540   -2.5700   12.0030 C   0  0  0  0  0  0  0  0  0  0  0  0
    6.2030    3.0990   10.7290 O   0  0  0  0  0  0  0  0  0  0  0  0
   13.1470   -3.3690   12.7130 O   0  0  0  0  0  0  0  0  0  0  0  0
    8.0720    2.1350    8.0350 C   0  0  0  0  0  0  0  0  0  0  0  0
   10.5080    1.4260    7.9980 C   0  0  0  0  0  0  0  0  0  0  0  0
    8.9100    0.9480    9.9730 C   0  0  1  0  0  0  0  0  0  0  0  0
   11.3660    0.5110    7.8950 C   0  0  0  0  0  0  0  0  0  0  0  0
   12.6810   -1.5450    8.5320 C   0  0  0  0  0  0  0  0  0  0  0  0
   13.3540   -2.2370    9.5500 C   0  0  0  0  0  0  0  0  0  0  0  0
    9.3610    1.8610    8.8290 C   0  0  3  0  0  0  0  0  0  0  0  0
   13.1450   -1.8490   10.8750 C   0  0  0  0  0  0  0  0  0  0  0  0
    7.6240    0.2890    9.4550 C   0  0  0  0  0  0  0  0  0  0  0  0
   11.7580   -0.5540    8.8760 C   0  0  0  0  0  0  0  0  0  0  0  0
    7.1320    2.5360   10.1730 C   0  0  0  0  0  0  0  0  0  0  0  0
   15.0760   -2.3920   12.1770 O   0  0  0  0  0  0  0  0  0  0  0  0
   12.3930    0.0110   12.4530 C   0  0  0  0  0  0  0  0  0  0  0  0
    6.9850    1.5880    8.9810 C   0  0  3  0  0  0  0  0  0  0  0  0
  1  3  1  0  0  0  0
  1 10  1  0  0  0  0
  2  3  1  0  0  0  0
  2 15  2  0  0  0  0
  2 20  1  0  0  0  0
  3 17  2  0  0  0  0
  4 10  1  0  0  0  0
  4 18  1  0  0  0  0
  5  7  1  0  0  0  0
  5 15  1  0  0  0  0
  5 19  2  0  0  0  0
  6 18  2  0  0  0  0
  8 14  1  0  0  0  0
  8 21  1  0  0  0  0
  9 11  2  0  0  0  0
  9 14  1  0  0  0  0
 10 14  1  0  0  0  0
 10 16  1  0  0  0  0
 11 17  1  0  0  0  0
 12 13  2  0  0  0  0
 12 17  1  0  0  0  0
 13 15  1  0  0  0  0
 16 21  1  0  0  0  0
 18 21  1  0  0  0  0
M  END
>  <Original_Directory>
4mns_A_rec_4mns_2ax_lig_tt_docked_0_pocket10

>  <Original_Filename>
4mns_A_rec_4mns_2ax_lig_tt_docked_0_pocket10_gen_sample_15.sdf

>  <Molecule_ID>
sample_15

>  <logS>
-3.49669

$$$$