/tmp/tmpn0xske4b
  MOE2022           3D

 33 40  0  0  1  0  0  0  0  0999 V2000
  -29.5160   19.1800  -18.6860 C   0  0  0  0  0  0  0  0  0  0  0  0
  -31.7700   20.7280  -20.3350 C   0  0  0  0  0  0  0  0  0  0  0  0
  -29.3160   17.2240  -21.2160 C   0  0  0  0  0  0  0  0  0  0  0  0
  -28.8510   21.5260  -17.8660 C   0  0  0  0  0  0  0  0  0  0  0  0
  -31.7680   19.2960  -19.8340 C   0  0  0  0  0  0  0  0  0  0  0  0
  -25.1690   22.4830  -20.7750 C   0  0  3  0  0  0  0  0  0  0  0  0
  -24.0820   22.3640  -18.1920 C   0  0  0  0  0  0  0  0  0  0  0  0
  -29.2950   22.1370  -16.5170 C   0  0  0  0  0  0  0  0  0  0  0  0
  -23.1080   22.4790  -19.3670 C   0  0  0  0  0  0  0  0  0  0  0  0
  -27.9390   24.0420  -15.2310 C   0  0  0  0  0  0  0  0  0  0  0  0
  -26.0920   23.7040  -17.3060 C   0  0  0  0  0  0  0  0  0  0  0  0
  -30.2580   17.3970  -20.2000 C   0  0  0  0  0  0  0  0  0  0  0  0
  -30.5060   15.2830  -21.9820 C   0  0  0  0  0  0  0  0  0  0  0  0
  -24.1760   22.7330  -22.8960 C   0  0  0  0  0  0  0  0  0  0  0  0
  -28.1030   23.0190  -16.1590 C   0  0  0  0  0  0  0  0  0  0  0  0
  -27.2780   23.0280  -17.2520 C   0  0  0  0  0  0  0  0  0  0  0  0
  -30.4890   21.1420  -20.9270 N   0  0  0  0  0  0  0  0  0  0  0  0
  -27.7690   22.2630  -18.2620 C   0  0  0  0  0  0  0  0  0  0  0  0
  -27.3150   22.3470  -19.5570 C   0  0  0  0  0  0  0  0  0  0  0  0
  -31.2970   15.3330  -20.8420 C   0  0  0  0  0  0  0  0  0  0  0  0
  -28.2290   21.9920  -20.5690 C   0  0  0  0  0  0  0  0  0  0  0  0
  -29.3660   21.2670  -20.1520 C   0  0  0  0  0  0  0  0  0  0  0  0
  -29.3180   20.6560  -18.8650 C   0  0  0  0  0  0  0  0  0  0  0  0
  -25.9360   22.7330  -19.6800 C   0  0  3  0  0  0  0  0  0  0  0  0
  -31.0970   16.3260  -19.8840 C   0  0  0  0  0  0  0  0  0  0  0  0
  -25.9790   24.8080  -16.4650 C   0  0  0  0  0  0  0  0  0  0  0  0
  -25.1990   23.3850  -18.4840 C   0  0  3  0  0  0  0  0  0  0  0  0
  -29.4720   16.1970  -22.1340 C   0  0  0  0  0  0  0  0  0  0  0  0
  -23.1480   22.7380  -21.8410 N   0  0  0  0  0  0  0  0  0  0  0  0
  -26.9520   25.0110  -15.4750 C   0  0  0  0  0  0  0  0  0  0  0  0
  -30.4410   18.6860  -19.7180 N   0  0  0  0  0  0  0  0  0  0  0  0
  -25.4690   22.9870  -22.1590 C   0  0  0  0  0  0  0  0  0  0  0  0
  -23.7380   22.0560  -20.6750 C   0  0  3  0  0  0  0  0  0  0  0  0
  1 23  1  0  0  0  0
  1 31  1  0  0  0  0
  2  5  1  0  0  0  0
  2 17  1  0  0  0  0
  3 12  1  0  0  0  0
  3 28  2  0  0  0  0
  4  8  1  0  0  0  0
  4 18  1  0  0  0  0
  4 23  2  0  0  0  0
  5 31  1  0  0  0  0
  6 24  1  0  0  0  0
  6 32  1  0  0  0  0
  6 33  1  0  0  0  0
  7  9  1  0  0  0  0
  7 27  1  0  0  0  0
  8 15  1  0  0  0  0
  9 33  1  0  0  0  0
 10 15  2  0  0  0  0
 10 30  1  0  0  0  0
 11 16  2  0  0  0  0
 11 26  1  0  0  0  0
 11 27  1  0  0  0  0
 12 25  2  0  0  0  0
 12 31  1  0  0  0  0
 13 20  2  0  0  0  0
 13 28  1  0  0  0  0
 14 29  1  0  0  0  0
 14 32  1  0  0  0  0
 15 16  1  0  0  0  0
 16 18  1  0  0  0  0
 17 22  1  0  0  0  0
 18 19  2  0  0  0  0
 19 21  1  0  0  0  0
 19 24  1  0  0  0  0
 20 25  1  0  0  0  0
 21 22  2  0  0  0  0
 22 23  1  0  0  0  0
 24 27  1  0  0  0  0
 26 30  2  0  0  0  0
 29 33  1  0  0  0  0
M  END
>  <Original_Directory>
4o0b_A_rec_3r4o_fu3_lig_tt_min_0_pocket10

>  <Original_Filename>
4o0b_A_rec_3r4o_fu3_lig_tt_min_0_pocket10_gen_sample_18.sdf

>  <Molecule_ID>
sample_18

>  <logS>
-6.95048

$$$$