/tmp/tmpko8opv1z
  MOE2022           3D

 17 19  0  0  1  0  0  0  0  0999 V2000
   14.7410    2.6360   13.7430 C   0  0  0  0  0  0  0  0  0  0  0  0
   14.0850    1.7060   15.8740 C   0  0  0  0  0  0  0  0  0  0  0  0
   11.8350    0.2970   11.7810 C   0  0  3  0  0  0  0  0  0  0  0  0
   10.8400   -0.1650    8.7520 F   0  0  0  0  0  0  0  0  0  0  0  0
   13.7870    1.8430   11.5790 C   0  0  0  0  0  0  0  0  0  0  0  0
   10.5520    0.0190   11.0770 C   0  0  0  0  0  0  0  0  0  0  0  0
   10.6600   -0.9210    9.8840 C   0  0  2  0  0  0  0  0  0  0  0  0
   13.0710    0.9900   15.2450 C   0  0  0  0  0  0  0  0  0  0  0  0
   13.8140    1.8240   13.0970 C   0  0  0  0  0  0  0  0  0  0  0  0
   11.7820   -1.8720    9.9750 C   0  0  0  0  0  0  0  0  0  0  0  0
   13.0900   -1.4480    9.8150 C   0  0  0  0  0  0  0  0  0  0  0  0
   13.0130    0.6340   11.0920 C   0  0  0  0  0  0  0  0  0  0  0  0
   13.5360   -0.1310   10.0470 C   0  0  0  0  0  0  0  0  0  0  0  0
    9.4550   -1.6150    9.7150 O   0  0  0  0  0  0  0  0  0  0  0  0
   11.8940    0.1280   13.2670 C   0  0  0  0  0  0  0  0  0  0  0  0
   12.9180    1.0600   13.8630 C   0  0  0  0  0  0  0  0  0  0  0  0
   14.9750    2.4520   15.1040 C   0  0  0  0  0  0  0  0  0  0  0  0
  1  9  2  0  0  0  0
  1 17  1  0  0  0  0
  2  8  1  0  0  0  0
  2 17  2  0  0  0  0
  3  6  1  0  0  0  0
  3 12  1  0  0  0  0
  3 15  1  0  0  0  0
  4  7  1  0  0  0  0
  5  9  1  0  0  0  0
  5 12  1  0  0  0  0
  6  7  1  0  0  0  0
  7 10  1  0  0  0  0
  7 14  1  0  0  0  0
  8 16  2  0  0  0  0
  9 16  1  0  0  0  0
 10 11  1  0  0  0  0
 11 13  1  0  0  0  0
 12 13  2  0  0  0  0
 15 16  1  0  0  0  0
M  END
>  <Original_Directory>
2vp9_D_rec_1ot3_thm_lig_tt_docked_0_pocket10

>  <Original_Filename>
2vp9_D_rec_1ot3_thm_lig_tt_docked_0_pocket10_gen_sample_5.sdf

>  <Molecule_ID>
sample_5

>  <logS>
-3.1139801

$$$$