
  MOE2022           3D

 22 24  0  0  0  0  0  0  0  0999 V2000
   12.2990    3.2840   26.6570 C   0  0  0  0  0  0  0  0  0  0  0  0
   14.5080    7.6590   26.1180 C   0  0  0  0  0  0  0  0  0  0  0  0
   13.0750    7.7040   25.9520 C   0  0  0  0  0  0  0  0  0  0  0  0
   14.9750    6.7310   27.0640 C   0  0  0  0  0  0  0  0  0  0  0  0
   12.3510    2.0460   24.4900 C   0  0  0  0  0  0  0  0  0  0  0  0
   12.8110    2.3090   27.4800 C   0  0  0  0  0  0  0  0  0  0  0  0
   12.1050    3.1070   25.3040 C   0  0  0  0  0  0  0  0  0  0  0  0
   16.2790   10.7540   24.6910 C   0  0  0  0  0  0  0  0  0  0  0  0
   15.4000    8.4580   25.2360 C   0  0  0  0  0  0  0  0  0  0  0  0
   13.5690    1.2390   27.1040 C   0  0  0  0  0  0  0  0  0  0  0  0
   17.7620    9.4980   23.1760 C   0  0  0  0  0  0  0  0  0  0  0  0
   13.8980    0.7870   25.8720 C   0  0  0  0  0  0  0  0  0  0  0  0
   15.5730    9.8310   25.4540 C   0  0  0  0  0  0  0  0  0  0  0  0
   13.2990    1.0690   24.6750 C   0  0  0  0  0  0  0  0  0  0  0  0
   17.2910   10.7090   23.7560 C   0  0  0  0  0  0  0  0  0  0  0  0
   16.0730    7.8580   24.1600 C   0  0  0  0  0  0  0  0  0  0  0  0
   12.2960    8.9830   25.8190 C   0  0  0  0  0  0  0  0  0  0  0  0
   12.8050    5.6670   26.9420 C   0  0  0  0  0  0  0  0  0  0  0  0
   14.1120    5.7240   27.4840 C   0  0  0  0  0  0  0  0  0  0  0  0
   17.0920    8.3110   23.3410 C   0  0  0  0  0  0  0  0  0  0  0  0
   12.4160    6.5490   26.0300 N   0  0  0  0  0  0  0  0  0  0  0  0
   11.8460    4.5670   27.3090 C   0  0  0  0  0  0  0  0  0  0  0  0
  1  6  1  0  0  0  0
  1  7  2  0  0  0  0
  1 22  1  0  0  0  0
  2  3  1  0  0  0  0
  2  4  2  0  0  0  0
  2  9  1  0  0  0  0
  3 17  1  0  0  0  0
  3 21  2  0  0  0  0
  4 19  1  0  0  0  0
  5  7  1  0  0  0  0
  5 14  2  0  0  0  0
  6 10  1  0  0  0  0
  8 13  1  0  0  0  0
  8 15  2  0  0  0  0
  9 13  1  0  0  0  0
  9 16  2  0  0  0  0
 10 12  2  0  0  0  0
 11 15  1  0  0  0  0
 11 20  2  0  0  0  0
 12 14  1  0  0  0  0
 16 20  1  0  0  0  0
 18 19  2  0  0  0  0
 18 21  1  0  0  0  0
 18 22  1  0  0  0  0
M  END
>  <Original_Directory>
2opy_A_rec_5m6e_7ht_lig_tt_min_0_pocket10

>  <Original_Filename>
2opy_A_rec_5m6e_7ht_lig_tt_min_0_pocket10_gen_sample_6.sdf

>  <Molecule_ID>
sample_6

>  <logS>
-4.3441601

$$$$