/tmp/tmppru69hxh
  MOE2022           3D

 25 28  0  0  1  0  0  0  0  0999 V2000
   -7.5830   -3.6080    7.7860 C   0  0  0  0  0  0  0  0  0  0  0  0
  -10.4380   -3.7440    5.7270 N   0  0  0  0  0  0  0  0  0  0  0  0
   -8.9130   -1.5160    4.4840 O   0  0  0  0  0  0  0  0  0  0  0  0
   -9.6760   -4.9700    7.3740 C   0  0  3  0  0  0  0  0  0  0  0  0
   -8.7830   -6.3620    9.3050 C   0  0  0  0  0  0  0  0  0  0  0  0
  -11.0900   -5.4170    9.0450 C   0  0  0  0  0  0  0  0  0  0  0  0
   -8.5350   -2.1820    5.6030 C   0  0  0  0  0  0  0  0  0  0  0  0
   -6.3500   -8.0610   12.3840 O   0  0  0  0  0  0  0  0  0  0  0  0
  -12.6280   -3.6960    9.7440 C   0  0  0  0  0  0  0  0  0  0  0  0
   -7.8060   -8.4690   10.4850 C   0  0  0  0  0  0  0  0  0  0  0  0
   -9.8130   -5.6960    8.5420 N   0  0  0  0  0  0  0  0  0  0  0  0
  -13.6600   -4.3680    9.1190 C   0  0  0  0  0  0  0  0  0  0  0  0
  -11.3540   -4.2530    9.7650 C   0  0  0  0  0  0  0  0  0  0  0  0
   -7.8640   -5.6140   10.0300 C   0  0  0  0  0  0  0  0  0  0  0  0
  -12.1780   -6.2050    8.6670 C   0  0  0  0  0  0  0  0  0  0  0  0
  -13.4560   -5.6490    8.6340 C   0  0  0  0  0  0  0  0  0  0  0  0
   -9.2500   -3.2450    6.0960 C   0  0  0  0  0  0  0  0  0  0  0  0
  -10.6080   -4.9210    6.3720 C   0  0  0  0  0  0  0  0  0  0  0  0
   -6.9520   -6.1730   11.0890 C   0  0  0  0  0  0  0  0  0  0  0  0
   -6.8820   -2.5120    7.3130 C   0  0  0  0  0  0  0  0  0  0  0  0
   -8.7810   -3.9500    7.1800 C   0  0  0  0  0  0  0  0  0  0  0  0
   -7.3690   -1.7830    6.2430 C   0  0  0  0  0  0  0  0  0  0  0  0
   -8.8200   -7.8830    9.4910 C   0  0  0  0  0  0  0  0  0  0  0  0
   -8.5310   -7.3600   12.5220 O   0  0  0  0  0  0  0  0  0  0  0  0
   -7.4250   -7.5130   11.6570 C   0  0  0  0  0  0  0  0  0  0  0  0
  1 20  2  0  0  0  0
  1 21  1  0  0  0  0
  2 17  1  0  0  0  0
  2 18  1  0  0  0  0
  3  7  1  0  0  0  0
  4 11  1  0  0  0  0
  4 18  1  0  0  0  0
  4 21  1  0  0  0  0
  5 11  1  0  0  0  0
  5 14  2  0  0  0  0
  5 23  1  0  0  0  0
  6 11  1  0  0  0  0
  6 13  1  0  0  0  0
  6 15  2  0  0  0  0
  7 17  1  0  0  0  0
  7 22  2  0  0  0  0
  8 25  1  0  0  0  0
  9 12  1  0  0  0  0
  9 13  2  0  0  0  0
 10 23  1  0  0  0  0
 10 25  1  0  0  0  0
 12 16  2  0  0  0  0
 14 19  1  0  0  0  0
 15 16  1  0  0  0  0
 17 21  2  0  0  0  0
 19 25  1  0  0  0  0
 20 22  1  0  0  0  0
 24 25  1  0  0  0  0
M  END
>  <Original_Directory>
4pjt_B_rec_3l3m_a92_lig_tt_docked_0_pocket10

>  <Original_Filename>
4pjt_B_rec_3l3m_a92_lig_tt_docked_0_pocket10_gen_sample_11.sdf

>  <Molecule_ID>
sample_11

>  <logS>
-3.0002401

$$$$