/tmp/tmp8em74z01
  MOE2022           3D

  9  9  0  0  1  0  0  0  0  0999 V2000
   88.2530   65.9050   13.7700 C   0  0  0  0  0  0  0  0  0  0  0  0
   86.4610   63.8160   12.3920 C   0  0  0  0  0  0  0  0  0  0  0  0
   87.3260   66.5510   12.9950 C   0  0  0  0  0  0  0  0  0  0  0  0
   89.0440   66.6110   14.6260 O   0  0  0  0  0  0  0  0  0  0  0  0
   89.6410   64.0300   14.2120 O   0  0  0  0  0  0  0  0  0  0  0  0
   85.6270   64.9080   12.3710 C   0  0  0  0  0  0  0  0  0  0  0  0
   87.6810   63.6460   12.9680 C   0  0  0  0  0  0  0  0  0  0  0  0
   86.0640   66.1940   12.6130 C   0  0  0  0  0  0  0  0  0  0  0  0
   88.4520   64.4950   13.7320 C   0  0  3  0  0  0  0  0  0  0  0  0
  1  3  2  0  0  0  0
  1  4  1  0  0  0  0
  1  9  1  0  0  0  0
  2  6  1  0  0  0  0
  2  7  2  0  0  0  0
  3  8  1  0  0  0  0
  5  9  1  0  0  0  0
  6  8  2  0  0  0  0
  7  9  1  0  0  0  0
M  END
>  <Original_Directory>
5fyt_A_rec_5fz6_mn1_lig_tt_min_0_pocket10

>  <Original_Filename>
5fyt_A_rec_5fz6_mn1_lig_tt_min_0_pocket10_gen_sample_13.sdf

>  <Molecule_ID>
sample_13

>  <logS>
-0.72838002

$$$$