/tmp/tmpvy5t9vmy
  MOE2022           3D

 30 34  0  0  1  0  0  0  0  0999 V2000
    9.5600   15.0340  -15.9610 N   0  0  0  0  0  0  0  0  0  0  0  0
    9.7420   14.9220  -14.6030 C   0  0  0  0  0  0  0  0  0  0  0  0
   12.7150   17.9440   -5.0000 C   0  0  0  0  0  0  0  0  0  0  0  0
    6.9040   16.6100  -14.9540 O   0  0  0  0  0  0  0  0  0  0  0  0
   10.9260   16.2010   -3.2380 C   0  0  0  0  0  0  0  0  0  0  0  0
    9.9780   15.6790  -10.4180 C   0  0  0  0  0  0  0  0  0  0  0  0
    8.2630   15.3830  -16.2680 N   0  0  0  0  0  0  0  0  0  0  0  0
   11.5000   15.5180  -10.2480 C   0  0  3  0  0  0  0  0  0  0  0  0
    7.4720   15.4030  -15.0530 C   0  0  0  0  0  0  0  0  0  0  0  0
    8.4940   15.3360  -12.5560 C   0  0  0  0  0  0  0  0  0  0  0  0
   12.6870   18.3010  -11.5200 C   0  0  0  0  0  0  0  0  0  0  0  0
    9.7120   15.3320  -11.8670 C   0  0  0  0  0  0  0  0  0  0  0  0
   10.5060   17.6190   -8.4150 O   0  0  0  0  0  0  0  0  0  0  0  0
   10.9640   16.4850   -5.7660 C   0  0  0  0  0  0  0  0  0  0  0  0
   12.6790   17.8470   -3.6270 C   0  0  0  0  0  0  0  0  0  0  0  0
   13.1950   17.5270  -10.3150 C   0  0  3  0  0  0  0  0  0  0  0  0
   11.9460   17.0260   -2.7730 C   0  0  0  0  0  0  0  0  0  0  0  0
   12.6730   17.2380   -7.4350 C   0  0  3  0  0  0  0  0  0  0  0  0
   14.7300   18.6970   -6.9570 C   0  0  0  0  0  0  0  0  0  0  0  0
    6.4330   14.5290  -15.0760 O   0  0  0  0  0  0  0  0  0  0  0  0
    8.5110   15.1480  -13.9430 C   0  0  0  0  0  0  0  0  0  0  0  0
   12.1190   17.2310   -6.0390 C   0  0  0  0  0  0  0  0  0  0  0  0
   11.6430   17.1810   -8.5360 C   0  0  0  0  0  0  0  0  0  0  0  0
   10.9410   14.9230  -13.8970 C   0  0  0  0  0  0  0  0  0  0  0  0
   13.8150   18.4800   -9.2870 C   0  0  0  0  0  0  0  0  0  0  0  0
   12.0970   15.1180  -11.5960 C   0  0  0  0  0  0  0  0  0  0  0  0
   10.9020   15.0880  -12.5190 C   0  0  0  0  0  0  0  0  0  0  0  0
   10.4530   16.1330   -4.5320 C   0  0  0  0  0  0  0  0  0  0  0  0
   13.9840   17.8080   -7.9250 C   0  0  3  0  0  0  0  0  0  0  0  0
   12.1290   16.7160   -9.7050 N   0  0  0  0  0  0  0  0  0  0  0  0
  1  2  1  0  0  0  0
  1  7  2  0  0  0  0
  2 21  2  0  0  0  0
  2 24  1  0  0  0  0
  3 15  1  0  0  0  0
  3 22  2  0  0  0  0
  4  9  1  0  0  0  0
  5 17  2  0  0  0  0
  5 28  1  0  0  0  0
  6  8  1  0  0  0  0
  6 12  1  0  0  0  0
  7  9  1  0  0  0  0
  8 26  1  0  0  0  0
  8 30  1  0  0  0  0
  9 20  1  0  0  0  0
  9 21  1  0  0  0  0
 10 12  2  0  0  0  0
 10 21  1  0  0  0  0
 11 16  1  0  0  0  0
 12 27  1  0  0  0  0
 13 23  2  0  0  0  0
 14 22  1  0  0  0  0
 14 28  2  0  0  0  0
 15 17  1  0  0  0  0
 16 25  1  0  0  0  0
 16 30  1  0  0  0  0
 18 22  1  0  0  0  0
 18 23  1  0  0  0  0
 18 29  1  0  0  0  0
 19 29  1  0  0  0  0
 23 30  1  0  0  0  0
 24 27  2  0  0  0  0
 25 29  1  0  0  0  0
 26 27  1  0  0  0  0
M  END
>  <Original_Directory>
4zw1_A_rec_4z1q_558_lig_tt_min_0_pocket10

>  <Original_Filename>
4zw1_A_rec_4z1q_558_lig_tt_min_0_pocket10_gen_sample_7.sdf

>  <Molecule_ID>
sample_7

>  <logS>
-4.5910902

$$$$