/tmp/tmp1_whc9g2
  MOE2022           3D

 30 34  0  0  1  0  0  0  0  0999 V2000
    8.4780   15.0850  -16.9630 C   0  0  0  0  0  0  0  0  0  0  0  0
   12.6780   17.5250  -11.4630 C   0  0  0  0  0  0  0  0  0  0  0  0
   11.4590   14.2850  -14.6920 C   0  0  0  0  0  0  0  0  0  0  0  0
    9.1280   14.4510  -14.3470 C   0  0  0  0  0  0  0  0  0  0  0  0
   11.6970   15.7810  -10.2940 C   0  0  0  0  0  0  0  0  0  0  0  0
   10.3100   16.9360   -8.5180 C   0  0  0  0  0  0  0  0  0  0  0  0
    7.8030   14.3590  -14.7770 C   0  0  0  0  0  0  0  0  0  0  0  0
    6.9870   13.4570  -14.1710 O   0  0  0  0  0  0  0  0  0  0  0  0
   12.4750   17.0270   -5.8990 O   0  0  0  0  0  0  0  0  0  0  0  0
   10.1160   14.5120  -15.3050 C   0  0  0  0  0  0  0  0  0  0  0  0
    7.6770   19.8710   -5.1390 C   0  0  0  0  0  0  0  0  0  0  0  0
   11.4420   16.7520   -9.3320 N   0  0  0  0  0  0  0  0  0  0  0  0
   10.5700   17.5510   -7.2290 C   0  0  3  0  0  0  0  0  0  0  0  0
    8.1920   18.1320   -6.7260 C   0  0  0  0  0  0  0  0  0  0  0  0
   12.0430   17.5470   -6.9220 C   0  0  0  0  0  0  0  0  0  0  0  0
   12.8600   17.9990   -7.9580 N   0  0  0  0  0  0  0  0  0  0  0  0
    9.8060   14.8680  -16.6090 C   0  0  0  0  0  0  0  0  0  0  0  0
    7.4750   14.8290  -16.0450 C   0  0  0  0  0  0  0  0  0  0  0  0
   11.2010   14.4290  -13.1870 C   0  0  3  0  0  0  0  0  0  0  0  0
   12.1710   15.4940  -12.7280 C   0  0  0  0  0  0  0  0  0  0  0  0
    9.9120   18.9560   -5.2740 C   0  0  0  0  0  0  0  0  0  0  0  0
    9.2210   16.5280   -8.8740 O   0  0  0  0  0  0  0  0  0  0  0  0
   12.4470   17.6850   -9.2160 C   0  0  0  0  0  0  0  0  0  0  0  0
    9.5540   18.2040   -6.4010 C   0  0  0  0  0  0  0  0  0  0  0  0
   12.1210   16.2840  -11.5050 N   0  0  0  0  0  0  0  0  0  0  0  0
    7.2710   19.0180   -6.1580 C   0  0  0  0  0  0  0  0  0  0  0  0
    9.6990   14.6470  -12.9710 C   0  0  0  0  0  0  0  0  0  0  0  0
   12.8960   18.2330  -10.3660 N   0  0  0  0  0  0  0  0  0  0  0  0
   11.5820   14.5780  -10.0590 O   0  0  0  0  0  0  0  0  0  0  0  0
    9.0010   19.8380   -4.6880 C   0  0  0  0  0  0  0  0  0  0  0  0
  1 17  2  0  0  0  0
  1 18  1  0  0  0  0
  2 25  1  0  0  0  0
  2 28  2  0  0  0  0
  3 10  1  0  0  0  0
  3 19  1  0  0  0  0
  4  7  1  0  0  0  0
  4 10  2  0  0  0  0
  4 27  1  0  0  0  0
  5 12  1  0  0  0  0
  5 25  1  0  0  0  0
  5 29  2  0  0  0  0
  6 12  1  0  0  0  0
  6 13  1  0  0  0  0
  6 22  2  0  0  0  0
  7  8  1  0  0  0  0
  7 18  2  0  0  0  0
  9 15  2  0  0  0  0
 10 17  1  0  0  0  0
 11 26  2  0  0  0  0
 11 30  1  0  0  0  0
 12 23  1  0  0  0  0
 13 15  1  0  0  0  0
 13 24  1  0  0  0  0
 14 24  2  0  0  0  0
 14 26  1  0  0  0  0
 15 16  1  0  0  0  0
 16 23  2  0  0  0  0
 19 20  1  0  0  0  0
 19 27  1  0  0  0  0
 20 25  1  0  0  0  0
 21 24  1  0  0  0  0
 21 30  2  0  0  0  0
 23 28  1  0  0  0  0
M  END
>  <Original_Directory>
4zw1_A_rec_4z1q_558_lig_tt_min_0_pocket10

>  <Original_Filename>
4zw1_A_rec_4z1q_558_lig_tt_min_0_pocket10_gen_sample_1.sdf

>  <Molecule_ID>
sample_1

>  <logS>
-4.8126001

$$$$