/tmp/tmpvw2qik57
  MOE2022           3D

 29 31  0  0  1  0  0  0  0  0999 V2000
   -3.9790   15.8690  -17.0950 C   0  0  0  0  0  0  0  0  0  0  0  0
   -1.9200   14.8240  -15.5450 C   0  0  0  0  0  0  0  0  0  0  0  0
   -6.9650   20.4560  -17.9400 C   0  0  3  0  0  0  0  0  0  0  0  0
   -7.4000   21.7110  -18.6110 C   0  0  0  0  0  0  0  0  0  0  0  0
   -8.2240   21.6580  -19.5650 O   0  0  0  0  0  0  0  0  0  0  0  0
   -3.1040   14.1170  -15.6930 C   0  0  0  0  0  0  0  0  0  0  0  0
   -7.7950   20.7570  -15.7450 O   0  0  0  0  0  0  0  0  0  0  0  0
   -7.3060   17.7380  -17.7170 C   0  0  0  0  0  0  0  0  0  0  0  0
   -4.7680   19.7410  -18.5660 O   0  0  0  0  0  0  0  0  0  0  0  0
   -8.5030   18.0210  -15.6520 C   0  0  0  0  0  0  0  0  0  0  0  0
   -5.3340   13.7590  -19.4060 O   0  0  0  0  0  0  0  0  0  0  0  0
   -8.5130   16.6540  -15.4770 C   0  0  0  0  0  0  0  0  0  0  0  0
   -6.0050   14.1060  -18.1580 S   0  0  0  0  0  0  0  0  0  0  0  0
   -0.6750   16.7900  -16.0920 O   0  0  0  0  0  0  0  0  0  0  0  0
   -6.0840   19.5460  -18.5490 C   0  0  3  0  0  0  0  0  0  0  0  0
   -2.9740   16.7010  -16.6010 C   0  0  0  0  0  0  0  0  0  0  0  0
   -7.3260   13.4690  -18.0480 O   0  0  0  0  0  0  0  0  0  0  0  0
   -7.5730   19.9490  -16.7980 C   0  0  3  0  0  0  0  0  0  0  0  0
   -1.8450   16.1080  -16.0630 C   0  0  0  0  0  0  0  0  0  0  0  0
   -4.0650   14.5620  -16.5920 C   0  0  0  0  0  0  0  0  0  0  0  0
   -5.1020   13.7240  -16.9270 O   0  0  0  0  0  0  0  0  0  0  0  0
   -6.8410   22.7980  -18.2890 O   0  0  0  0  0  0  0  0  0  0  0  0
   -7.8310   18.5790  -16.7300 C   0  0  0  0  0  0  0  0  0  0  0  0
   -6.6690   18.3020  -18.8290 C   0  0  0  0  0  0  0  0  0  0  0  0
   -7.1820   16.3800  -17.4360 C   0  0  0  0  0  0  0  0  0  0  0  0
   -6.1430   15.7120  -18.0750 O   0  0  0  0  0  0  0  0  0  0  0  0
   -4.8960   16.3420  -18.0280 C   0  0  0  0  0  0  0  0  0  0  0  0
   -7.9470   15.8120  -16.4240 C   0  0  0  0  0  0  0  0  0  0  0  0
   -3.1250   18.0510  -16.5560 O   0  0  0  0  0  0  0  0  0  0  0  0
  1 16  2  0  0  0  0
  1 20  1  0  0  0  0
  1 27  1  0  0  0  0
  2  6  1  0  0  0  0
  2 19  2  0  0  0  0
  3  4  1  0  0  0  0
  3 15  1  0  0  0  0
  3 18  1  0  0  0  0
  4  5  2  0  0  0  0
  4 22  1  0  0  0  0
  6 20  2  0  0  0  0
  7 18  1  0  0  0  0
  8 23  2  0  0  0  0
  8 24  1  0  0  0  0
  8 25  1  0  0  0  0
  9 15  1  0  0  0  0
 10 12  2  0  0  0  0
 10 23  1  0  0  0  0
 11 13  2  0  0  0  0
 12 28  1  0  0  0  0
 13 17  1  0  0  0  0
 13 21  1  0  0  0  0
 14 19  1  0  0  0  0
 15 24  1  0  0  0  0
 16 19  1  0  0  0  0
 16 29  1  0  0  0  0
 18 23  1  0  0  0  0
 20 21  1  0  0  0  0
 25 26  1  0  0  0  0
 25 28  2  0  0  0  0
 26 27  1  0  0  0  0
M  END
>  <Original_Directory>
5f3c_A_rec_5vgi_9dj_lig_tt_docked_15_pocket10

>  <Original_Filename>
5f3c_A_rec_5vgi_9dj_lig_tt_docked_15_pocket10_gen_sample_11.sdf

>  <Molecule_ID>
sample_11

>  <logS>
-2.3162601

$$$$