/tmp/tmp9yjbf41i
  MOE2022           3D

 15 16  0  0  1  0  0  0  0  0999 V2000
   21.4140    9.5610   16.8470 C   0  0  0  0  0  0  0  0  0  0  0  0
   19.9960   10.4800   18.6830 C   0  0  3  0  0  0  0  0  0  0  0  0
   22.4030    7.5000   18.6480 C   0  0  3  0  0  0  0  0  0  0  0  0
   21.5320    8.6360   19.1390 C   0  0  0  0  0  0  0  0  0  0  0  0
   22.0950    8.4440   16.3930 C   0  0  3  0  0  0  0  0  0  0  0  0
   23.1210    8.4380   15.3460 C   0  0  0  0  0  0  0  0  0  0  0  0
   23.8790    7.8400   18.7360 C   0  0  0  0  0  0  0  0  0  0  0  0
   19.1610   11.1180   17.8570 N   0  0  0  0  0  0  0  0  0  0  0  0
   23.0860    7.4190   14.4710 N   0  0  0  0  0  0  0  0  0  0  0  0
   20.9960    9.5760   18.2140 C   0  0  0  0  0  0  0  0  0  0  0  0
   21.1930    8.7600   20.4940 C   0  0  0  0  0  0  0  0  0  0  0  0
   20.3140    9.7430   20.9000 C   0  0  0  0  0  0  0  0  0  0  0  0
   22.0370    7.1880   17.2030 C   0  0  0  0  0  0  0  0  0  0  0  0
   24.0010    9.2680   15.3290 O   0  0  0  0  0  0  0  0  0  0  0  0
   19.8130   10.6450   20.0130 O   0  0  0  0  0  0  0  0  0  0  0  0
  1  5  1  0  0  0  0
  1 10  1  0  0  0  0
  2  8  1  0  0  0  0
  2 10  1  0  0  0  0
  2 15  1  0  0  0  0
  3  4  1  0  0  0  0
  3  7  1  0  0  0  0
  3 13  1  0  0  0  0
  4 10  2  0  0  0  0
  4 11  1  0  0  0  0
  5  6  1  0  0  0  0
  5 13  1  0  0  0  0
  6  9  1  0  0  0  0
  6 14  2  0  0  0  0
 11 12  2  0  0  0  0
 12 15  1  0  0  0  0
M  END
>  <Original_Directory>
1ds5_A_rec_4dgo_0jw_lig_tt_docked_1_pocket10

>  <Original_Filename>
1ds5_A_rec_4dgo_0jw_lig_tt_docked_1_pocket10_gen_sample_5.sdf

>  <Molecule_ID>
sample_5

>  <logS>
-1.10806

$$$$