/tmp/tmpd4bs2c33
  MOE2022           3D

 15 16  0  0  1  0  0  0  0  0999 V2000
   22.2750    9.0930   16.6750 C   0  0  0  0  0  0  0  0  0  0  0  0
   19.7000    9.6010   19.9180 O   0  0  0  0  0  0  0  0  0  0  0  0
   20.1810    9.9870   17.5550 C   0  0  0  0  0  0  0  0  0  0  0  0
   21.5120    8.3930   18.8790 C   0  0  3  0  0  0  0  0  0  0  0  0
   23.9720    8.3370   18.2550 C   0  0  0  0  0  0  0  0  0  0  0  0
   21.3450   10.1260   16.6570 N   0  0  0  0  0  0  0  0  0  0  0  0
   23.5490    7.4520   15.3270 C   0  0  0  0  0  0  0  0  0  0  0  0
   20.7190    9.7020   18.9610 C   0  0  0  0  0  0  0  0  0  0  0  0
   25.0010    5.7690   16.0880 O   0  0  0  0  0  0  0  0  0  0  0  0
   24.8580    7.7580   17.3610 C   0  0  0  0  0  0  0  0  0  0  0  0
   24.4550    6.9950   16.2690 C   0  0  0  0  0  0  0  0  0  0  0  0
   22.6700    8.6090   17.9400 C   0  0  3  0  0  0  0  0  0  0  0  0
   21.5190   10.7640   19.3940 O   0  0  0  0  0  0  0  0  0  0  0  0
   22.6700    8.4960   15.4830 C   0  0  0  0  0  0  0  0  0  0  0  0
   21.9180    7.9300   20.1460 O   0  0  0  0  0  0  0  0  0  0  0  0
  1  6  1  0  0  0  0
  1 12  1  0  0  0  0
  1 14  2  0  0  0  0
  2  8  1  0  0  0  0
  3  6  1  0  0  0  0
  3  8  1  0  0  0  0
  4  8  1  0  0  0  0
  4 12  1  0  0  0  0
  4 15  1  0  0  0  0
  5 10  2  0  0  0  0
  5 12  1  0  0  0  0
  7 11  2  0  0  0  0
  7 14  1  0  0  0  0
  8 13  1  0  0  0  0
  9 11  1  0  0  0  0
 10 11  1  0  0  0  0
M  END
>  <Original_Directory>
1ds5_A_rec_4dgo_0jw_lig_tt_docked_1_pocket10

>  <Original_Filename>
1ds5_A_rec_4dgo_0jw_lig_tt_docked_1_pocket10_gen_sample_9.sdf

>  <Molecule_ID>
sample_9

>  <logS>
-0.11707

$$$$