/tmp/tmppzfrfqw9
  MOE2022           3D

 15 17  0  0  1  0  0  0  0  0999 V2000
   23.6380    6.5360   15.7230 C   0  0  0  0  0  0  0  0  0  0  0  0
   22.4400    8.8190   15.4070 C   0  0  3  0  0  0  0  0  0  0  0  0
   21.2750    9.6380   17.5310 C   0  0  0  0  0  0  0  0  0  0  0  0
   24.4430    6.0810   16.9380 C   0  0  0  0  0  0  0  0  0  0  0  0
   22.5770    7.5250   16.1920 C   0  0  3  0  0  0  0  0  0  0  0  0
   22.3080    8.6470   13.9040 C   0  0  0  0  0  0  0  0  0  0  0  0
   20.0400   10.2100   19.5430 C   0  0  0  0  0  0  0  0  0  0  0  0
   23.7420    6.7220   18.1240 C   0  0  0  0  0  0  0  0  0  0  0  0
   19.2500   10.8670   17.4050 O   0  0  0  0  0  0  0  0  0  0  0  0
   23.1190    7.9700   17.5490 C   0  0  3  0  0  0  0  0  0  0  0  0
   21.9980    8.8010   19.6710 C   0  0  0  0  0  0  0  0  0  0  0  0
   20.2090   10.2890   18.1630 C   0  0  0  0  0  0  0  0  0  0  0  0
   21.4140    9.7600   16.0290 C   0  0  0  0  0  0  0  0  0  0  0  0
   22.0790    8.7720   18.2760 C   0  0  0  0  0  0  0  0  0  0  0  0
   20.9300    9.4440   20.2960 C   0  0  0  0  0  0  0  0  0  0  0  0
  1  4  1  0  0  0  0
  1  5  1  0  0  0  0
  2  5  1  0  0  0  0
  2  6  1  0  0  0  0
  2 13  1  0  0  0  0
  3 12  2  0  0  0  0
  3 13  1  0  0  0  0
  3 14  1  0  0  0  0
  4  8  1  0  0  0  0
  5 10  1  0  0  0  0
  7 12  1  0  0  0  0
  7 15  2  0  0  0  0
  8 10  1  0  0  0  0
  9 12  1  0  0  0  0
 10 14  1  0  0  0  0
 11 14  2  0  0  0  0
 11 15  1  0  0  0  0
M  END
>  <Original_Directory>
1ds5_A_rec_4dgo_0jw_lig_tt_docked_1_pocket10

>  <Original_Filename>
1ds5_A_rec_4dgo_0jw_lig_tt_docked_1_pocket10_gen_sample_11.sdf

>  <Molecule_ID>
sample_11

>  <logS>
-4.54456

$$$$