
  MOE2022           3D

  9 10  0  0  1  0  0  0  0  0999 V2000
   30.3100  -14.2860  -11.0790 C   0  0  0  0  0  0  0  0  0  0  0  0
   30.4390  -13.5530  -13.8770 C   0  0  3  0  0  0  0  0  0  0  0  0
   31.0830  -13.0720  -11.6320 C   0  0  3  0  0  0  0  0  0  0  0  0
   29.7400  -14.8950  -13.5340 C   0  0  0  0  0  0  0  0  0  0  0  0
   29.8400  -15.2950  -12.0740 C   0  0  0  0  0  0  0  0  0  0  0  0
   29.4980  -12.4360  -13.3470 C   0  0  3  0  0  0  0  0  0  0  0  0
   29.4540  -11.3340  -14.2400 O   0  0  0  0  0  0  0  0  0  0  0  0
   31.6930  -13.4490  -12.9940 C   0  0  0  0  0  0  0  0  0  0  0  0
   30.0060  -12.0220  -11.9710 C   0  0  0  0  0  0  0  0  0  0  0  0
  1  3  1  0  0  0  0
  1  5  1  0  0  0  0
  2  4  1  0  0  0  0
  2  6  1  0  0  0  0
  2  8  1  0  0  0  0
  3  8  1  0  0  0  0
  3  9  1  0  0  0  0
  4  5  1  0  0  0  0
  6  7  1  0  0  0  0
  6  9  1  0  0  0  0
M  END
>  <Original_Directory>
4bwm_A_rec_4bwm_doc_lig_tt_min_0_pocket10

>  <Original_Filename>
4bwm_A_rec_4bwm_doc_lig_tt_min_0_pocket10_gen_sample_8.sdf

>  <Molecule_ID>
sample_8

>  <logS>
-1.47409

$$$$