/tmp/tmpcfgazu0t
  MOE2022           3D

 27 31  0  0  1  0  0  0  0  0999 V2000
  -27.0210  -20.0970    7.7290 N   0  0  0  0  0  0  0  0  0  0  0  0
  -27.4900  -22.0600    9.0130 C   0  0  0  0  0  0  0  0  0  0  0  0
  -25.9440  -17.3240    5.0220 C   0  0  0  0  0  0  0  0  0  0  0  0
  -26.7900  -16.9220    6.2370 C   0  0  3  0  0  0  0  0  0  0  0  0
  -26.9180  -24.2410    3.6700 C   0  0  0  0  0  0  0  0  0  0  0  0
  -26.5940  -17.8020    7.4620 C   0  0  3  0  0  0  0  0  0  0  0  0
  -29.6690  -21.8930    8.0110 C   0  0  0  0  0  0  0  0  0  0  0  0
  -28.0540  -19.3280    8.3830 C   0  0  3  0  0  0  0  0  0  0  0  0
  -28.9070  -20.0190    9.4120 C   0  0  0  0  0  0  0  0  0  0  0  0
  -28.3290  -22.2840    4.5280 C   0  0  0  0  0  0  0  0  0  0  0  0
  -26.0800  -23.8510    1.1690 O   0  0  0  0  0  0  0  0  0  0  0  0
  -26.0210  -19.1840    7.2080 C   0  0  0  0  0  0  0  0  0  0  0  0
  -27.5010  -23.8630    1.2400 C   0  0  0  0  0  0  0  0  0  0  0  0
  -27.9400  -24.4500    2.5740 C   0  0  0  0  0  0  0  0  0  0  0  0
  -26.1960  -22.2590    6.8260 C   0  0  0  0  0  0  0  0  0  0  0  0
  -26.0740  -16.0040    4.2490 C   0  0  3  0  0  0  0  0  0  0  0  0
  -25.0000  -15.9420    3.2950 O   0  0  0  0  0  0  0  0  0  0  0  0
  -28.8900  -21.6240    5.6240 C   0  0  0  0  0  0  0  0  0  0  0  0
  -26.0020  -15.6770    6.6340 C   0  0  3  0  0  0  0  0  0  0  0  0
  -28.6240  -21.7340    6.9580 C   0  0  3  0  0  0  0  0  0  0  0  0
  -27.1920  -23.0980    4.6350 C   0  0  0  0  0  0  0  0  0  0  0  0
  -25.8300  -14.9340    5.3170 C   0  0  0  0  0  0  0  0  0  0  0  0
  -27.2580  -21.5330    7.5880 C   0  0  2  0  0  0  0  0  0  0  0  0
  -26.6230  -14.9540    7.6870 O   0  0  0  0  0  0  0  0  0  0  0  0
  -26.2190  -22.8970    5.6460 C   0  0  0  0  0  0  0  0  0  0  0  0
  -27.8340  -17.9560    8.1400 O   0  0  0  0  0  0  0  0  0  0  0  0
  -28.9130  -21.5500    9.3060 C   0  0  3  0  0  0  0  0  0  0  0  0
  1  8  1  0  0  0  0
  1 12  1  0  0  0  0
  1 23  1  0  0  0  0
  2 23  1  0  0  0  0
  2 27  1  0  0  0  0
  3  4  1  0  0  0  0
  3 16  1  0  0  0  0
  4  6  1  0  0  0  0
  4 19  1  0  0  0  0
  5 14  1  0  0  0  0
  5 21  2  0  0  0  0
  6 12  1  0  0  0  0
  6 26  1  0  0  0  0
  7 20  1  0  0  0  0
  7 27  1  0  0  0  0
  8  9  1  0  0  0  0
  8 26  1  0  0  0  0
  9 27  1  0  0  0  0
 10 18  2  0  0  0  0
 10 21  1  0  0  0  0
 11 13  1  0  0  0  0
 13 14  1  0  0  0  0
 15 23  1  0  0  0  0
 15 25  2  0  0  0  0
 16 17  1  0  0  0  0
 16 22  1  0  0  0  0
 18 20  1  0  0  0  0
 19 22  1  0  0  0  0
 19 24  1  0  0  0  0
 20 23  1  0  0  0  0
 21 25  1  0  0  0  0
M  END
>  <Original_Directory>
2xkw_A_rec_2q61_sf1_lig_tt_docked_8_pocket10

>  <Original_Filename>
2xkw_A_rec_2q61_sf1_lig_tt_docked_8_pocket10_gen_sample_9.sdf

>  <Molecule_ID>
sample_9

>  <logS>
-1.97534

$$$$