/tmp/tmp0hyv5c4m
  MOE2022           3D

 31 36  0  0  1  0  0  0  0  0999 V2000
   23.3600   60.4040   20.2000 C   0  0  3  0  0  0  0  0  0  0  0  0
   26.4080   60.0110   22.3730 C   0  0  0  0  0  0  0  0  0  0  0  0
   18.3420   61.5150   22.9730 C   0  0  1  0  0  0  0  0  0  0  0  0
   22.7670   61.0210   22.5260 C   0  0  3  0  0  0  0  0  0  0  0  0
   22.9630   61.8110   19.7530 C   0  0  0  0  0  0  0  0  0  0  0  0
   24.2200   61.0250   23.0000 C   0  0  0  0  0  0  0  0  0  0  0  0
   16.9950   61.5070   23.5380 N   0  0  0  0  0  0  0  0  0  0  0  0
   22.2620   62.4280   22.1820 C   0  0  3  0  0  0  0  0  0  0  0  0
   24.8210   60.4820   20.5970 C   0  0  3  0  0  0  0  0  0  0  0  0
   16.0580   62.3120   23.0740 C   0  0  0  0  0  0  0  0  0  0  0  0
   28.7010   60.1130   21.7460 N   0  0  0  0  0  0  0  0  0  0  0  0
   22.3060   62.7820   20.7060 C   0  0  0  0  0  0  0  0  0  0  0  0
   20.9040   62.5740   22.8110 C   0  0  3  0  0  0  0  0  0  0  0  0
   25.1670   60.5190   21.9510 C   0  0  0  0  0  0  0  0  0  0  0  0
   16.2930   63.3410   22.2580 N   0  0  0  0  0  0  0  0  0  0  0  0
   21.3510   60.3720   25.6800 C   0  0  0  0  0  0  0  0  0  0  0  0
   23.2030   62.1320   18.5920 O   0  0  0  0  0  0  0  0  0  0  0  0
   20.0310   60.0490   25.9560 C   0  0  0  0  0  0  0  0  0  0  0  0
   17.5680   63.6890   22.0200 C   0  0  0  0  0  0  0  0  0  0  0  0
   18.6340   62.8640   22.3680 C   0  0  0  0  0  0  0  0  0  0  0  0
   22.5120   60.0250   21.4110 C   0  0  0  0  0  0  0  0  0  0  0  0
   25.8360   60.5040   19.6330 C   0  0  0  0  0  0  0  0  0  0  0  0
   27.5590   58.1370   21.3240 N   0  0  0  0  0  0  0  0  0  0  0  0
   19.3440   61.3220   24.0810 C   0  0  3  0  0  0  0  0  0  0  0  0
   27.4130   59.5660   21.3490 C   0  0  0  0  0  0  0  0  0  0  0  0
   19.9250   63.3500   22.3240 N   0  0  0  0  0  0  0  0  0  0  0  0
   19.0180   60.7090   25.2830 C   0  0  0  0  0  0  0  0  0  0  0  0
   18.4470   60.4390   21.9190 C   0  0  0  0  0  0  0  0  0  0  0  0
   20.6240   61.7530   23.8990 N   0  0  0  0  0  0  0  0  0  0  0  0
   21.5840   61.4290   24.7990 C   0  0  0  0  0  0  0  0  0  0  0  0
   27.0830   60.0220   19.9450 C   0  0  0  0  0  0  0  0  0  0  0  0
  1  5  1  0  0  0  0
  1  9  1  0  0  0  0
  1 21  1  0  0  0  0
  2 14  2  0  0  0  0
  2 25  1  0  0  0  0
  3  7  1  0  0  0  0
  3 20  1  0  0  0  0
  3 24  1  0  0  0  0
  3 28  1  0  0  0  0
  4  6  1  0  0  0  0
  4  8  1  0  0  0  0
  4 21  1  0  0  0  0
  5 12  1  0  0  0  0
  5 17  2  0  0  0  0
  6 14  1  0  0  0  0
  7 10  2  0  0  0  0
  8 12  1  0  0  0  0
  8 13  1  0  0  0  0
  9 14  1  0  0  0  0
  9 22  1  0  0  0  0
 10 15  1  0  0  0  0
 11 25  1  0  0  0  0
 13 26  1  0  0  0  0
 13 29  1  0  0  0  0
 15 19  2  0  0  0  0
 16 18  1  0  0  0  0
 16 30  2  0  0  0  0
 18 27  2  0  0  0  0
 19 20  1  0  0  0  0
 20 26  2  0  0  0  0
 22 31  2  0  0  0  0
 23 25  1  0  0  0  0
 24 27  1  0  0  0  0
 24 29  1  0  0  0  0
 25 31  1  0  0  0  0
 29 30  1  0  0  0  0
M  END
>  <Original_Directory>
3lj3_A_rec_3apf_bmw_lig_tt_docked_1_pocket10

>  <Original_Filename>
3lj3_A_rec_3apf_bmw_lig_tt_docked_1_pocket10_gen_sample_5.sdf

>  <Molecule_ID>
sample_5

>  <logS>
-3.0355401

$$$$