/tmp/tmpcr8r3a2a
  MOE2022           3D

 31 35  0  0  1  0  0  0  0  0999 V2000
   18.8690   60.7460   24.4170 C   0  0  3  0  0  0  0  0  0  0  0  0
   24.4930   60.6110   21.8250 C   0  0  0  0  0  0  0  0  0  0  0  0
   25.3120   63.5230   19.9330 O   0  0  0  0  0  0  0  0  0  0  0  0
   27.0850   58.5670   23.6890 C   0  0  0  0  0  0  0  0  0  0  0  0
   19.8560   60.4900   23.3340 C   0  0  2  0  0  0  0  0  0  0  0  0
   24.2620   61.6440   20.8480 C   0  0  0  0  0  0  0  0  0  0  0  0
   22.2850   61.0590   22.7390 C   0  0  0  0  0  0  0  0  0  0  0  0
   21.2470   60.9040   23.8220 C   0  0  3  0  0  0  0  0  0  0  0  0
   19.4010   61.2000   22.0390 C   0  0  3  0  0  0  0  0  0  0  0  0
   26.8150   59.6970   21.1870 C   0  0  0  0  0  0  0  0  0  0  0  0
   20.5570   59.6960   25.9950 C   0  0  0  0  0  0  0  0  0  0  0  0
   17.5240   61.3330   24.1830 C   0  0  0  0  0  0  0  0  0  0  0  0
   22.1590   62.1610   21.8850 C   0  0  0  0  0  0  0  0  0  0  0  0
   28.6060   60.8470   20.1460 N   0  0  0  0  0  0  0  0  0  0  0  0
   27.5380   58.5040   21.3220 C   0  0  0  0  0  0  0  0  0  0  0  0
   25.8070   59.9920   22.1780 C   0  0  0  0  0  0  0  0  0  0  0  0
   19.2520   60.4690   25.8260 C   0  0  0  0  0  0  0  0  0  0  0  0
   25.2040   62.2060   19.7540 C   0  0  0  0  0  0  0  0  0  0  0  0
   26.1180   59.5640   23.4890 C   0  0  0  0  0  0  0  0  0  0  0  0
   23.0310   62.3080   20.8160 C   0  0  0  0  0  0  0  0  0  0  0  0
   16.3790   62.4170   22.4200 O   0  0  0  0  0  0  0  0  0  0  0  0
   27.6620   57.9270   22.5930 C   0  0  0  0  0  0  0  0  0  0  0  0
   16.9590   61.1730   22.7930 C   0  0  3  0  0  0  0  0  0  0  0  0
   19.8890   58.9830   23.0760 C   0  0  0  0  0  0  0  0  0  0  0  0
   23.3720   60.2000   22.5740 C   0  0  0  0  0  0  0  0  0  0  0  0
   19.5360   62.7150   22.0450 C   0  0  0  0  0  0  0  0  0  0  0  0
   24.6410   61.9920   18.5420 O   0  0  0  0  0  0  0  0  0  0  0  0
   27.3130   60.7840   20.3390 C   0  0  0  0  0  0  0  0  0  0  0  0
   26.5020   61.6360   19.7050 N   0  0  0  0  0  0  0  0  0  0  0  0
   17.9610   60.7750   21.7190 C   0  0  0  0  0  0  0  0  0  0  0  0
   21.6860   60.1870   25.0880 C   0  0  0  0  0  0  0  0  0  0  0  0
  1  5  1  0  0  0  0
  1 12  1  0  0  0  0
  1 17  1  0  0  0  0
  2  6  1  0  0  0  0
  2 16  1  0  0  0  0
  2 25  2  0  0  0  0
  3 18  1  0  0  0  0
  4 19  1  0  0  0  0
  4 22  2  0  0  0  0
  5  8  1  0  0  0  0
  5  9  1  0  0  0  0
  5 24  1  0  0  0  0
  6 18  1  0  0  0  0
  6 20  2  0  0  0  0
  7  8  1  0  0  0  0
  7 13  2  0  0  0  0
  7 25  1  0  0  0  0
  8 31  1  0  0  0  0
  9 26  1  0  0  0  0
  9 30  1  0  0  0  0
 10 15  2  0  0  0  0
 10 16  1  0  0  0  0
 10 28  1  0  0  0  0
 11 17  1  0  0  0  0
 11 31  1  0  0  0  0
 12 23  1  0  0  0  0
 13 20  1  0  0  0  0
 14 28  2  0  0  0  0
 15 22  1  0  0  0  0
 16 19  2  0  0  0  0
 18 27  1  0  0  0  0
 18 29  1  0  0  0  0
 21 23  1  0  0  0  0
 23 30  1  0  0  0  0
 28 29  1  0  0  0  0
M  END
>  <Original_Directory>
3lj3_A_rec_3apf_bmw_lig_tt_docked_1_pocket10

>  <Original_Filename>
3lj3_A_rec_3apf_bmw_lig_tt_docked_1_pocket10_gen_sample_1.sdf

>  <Molecule_ID>
sample_1

>  <logS>
-7.9530902

$$$$