/tmp/tmpug5otpa9
  MOE2022           3D

 12 12  0  0  0  0  0  0  0  0999 V2000
  -18.2690  117.0120    2.1520 C   0  0  0  0  0  0  0  0  0  0  0  0
  -19.5950  120.6590    3.7320 O   0  0  0  0  0  0  0  0  0  0  0  0
  -18.3990  118.3680    2.4210 C   0  0  0  0  0  0  0  0  0  0  0  0
  -17.7700  116.1530    3.1280 C   0  0  0  0  0  0  0  0  0  0  0  0
  -17.4260  114.2270    1.8150 O   0  0  0  0  0  0  0  0  0  0  0  0
  -17.9980  118.8810    3.6380 C   0  0  0  0  0  0  0  0  0  0  0  0
  -18.4600  120.2750    4.0510 C   0  0  0  0  0  0  0  0  0  0  0  0
  -17.2790  118.0670    4.5090 C   0  0  0  0  0  0  0  0  0  0  0  0
  -17.9170  114.6460    2.8910 C   0  0  0  0  0  0  0  0  0  0  0  0
  -18.4610  113.8990    3.7100 O   0  0  0  0  0  0  0  0  0  0  0  0
  -17.1450  116.7030    4.2390 C   0  0  0  0  0  0  0  0  0  0  0  0
  -17.5770  121.0980    4.4110 O   0  0  0  0  0  0  0  0  0  0  0  0
  1  3  2  0  0  0  0
  1  4  1  0  0  0  0
  2  7  2  0  0  0  0
  3  6  1  0  0  0  0
  4  9  1  0  0  0  0
  4 11  2  0  0  0  0
  5  9  2  0  0  0  0
  6  7  1  0  0  0  0
  6  8  2  0  0  0  0
  7 12  1  0  0  0  0
  8 11  1  0  0  0  0
  9 10  1  0  0  0  0
M  END
>  <Original_Directory>
5io6_A_rec_5io6_d12_lig_tt_min_0_pocket10

>  <Original_Filename>
5io6_A_rec_5io6_d12_lig_tt_min_0_pocket10_gen_sample_18.sdf

>  <Molecule_ID>
sample_18

>  <logS>
-1.32368

$$$$