/tmp/tmp4se0pz3m
  MOE2022           3D

 30 33  0  0  1  0  0  0  0  0999 V2000
   -5.5030  -28.6500    4.6950 C   0  0  0  0  0  0  0  0  0  0  0  0
   -3.8430  -27.0250    4.1750 N   0  0  0  0  0  0  0  0  0  0  0  0
   -7.0600  -26.1430    3.1470 C   0  0  0  0  0  0  0  0  0  0  0  0
   -2.3200  -29.5560    6.2580 N   0  0  0  0  0  0  0  0  0  0  0  0
   -3.3020  -28.9090    5.5550 C   0  0  0  0  0  0  0  0  0  0  0  0
   -6.4630  -32.6610    4.7500 C   0  0  0  0  0  0  0  0  0  0  0  0
   -1.3380  -27.5320    6.7630 N   0  0  0  0  0  0  0  0  0  0  0  0
   -7.2010  -25.6700    4.4790 O   0  0  0  0  0  0  0  0  0  0  0  0
   -9.8880  -33.6850    2.3720 O   0  0  0  0  0  0  0  0  0  0  0  0
   -6.8330  -29.0270    4.8860 C   0  0  0  0  0  0  0  0  0  0  0  0
   -6.8070  -25.1090    2.2610 O   0  0  0  0  0  0  0  0  0  0  0  0
   -5.0920  -27.4930    4.0300 C   0  0  0  0  0  0  0  0  0  0  0  0
   -4.4950  -29.5190    5.1470 C   0  0  0  0  0  0  0  0  0  0  0  0
   -7.1240  -30.3510    5.1820 C   0  0  0  0  0  0  0  0  0  0  0  0
   -8.2290  -26.7460    2.8770 O   0  0  0  0  0  0  0  0  0  0  0  0
   -5.5940  -33.7100    5.0240 C   0  0  0  0  0  0  0  0  0  0  0  0
   -3.1110  -27.5690    5.1830 C   0  0  3  0  0  0  0  0  0  0  0  0
   -8.2710  -34.1640    3.9970 C   0  0  0  0  0  0  0  0  0  0  0  0
   -2.3360  -26.8610    6.1210 C   0  0  0  0  0  0  0  0  0  0  0  0
   -6.1090  -31.3110    5.0530 C   0  0  0  0  0  0  0  0  0  0  0  0
   -7.1410  -35.5800    5.5690 C   0  0  0  0  0  0  0  0  0  0  0  0
   -5.8770  -26.9750    3.0280 N   0  0  0  0  0  0  0  0  0  0  0  0
   -0.1230  -29.4460    6.8260 O   0  0  0  0  0  0  0  0  0  0  0  0
   -8.3140  -35.1870    4.9160 C   0  0  0  0  0  0  0  0  0  0  0  0
   -5.9210  -34.9990    5.3730 C   0  0  0  0  0  0  0  0  0  0  0  0
   -4.7850  -30.8840    5.2230 C   0  0  0  0  0  0  0  0  0  0  0  0
   -8.3680  -35.2180    1.8770 O   0  0  0  0  0  0  0  0  0  0  0  0
   -1.2480  -28.9070    6.8040 C   0  0  0  0  0  0  0  0  0  0  0  0
   -8.8550  -34.3420    2.6160 C   0  0  0  0  0  0  0  0  0  0  0  0
   -7.7220  -32.9240    4.2580 C   0  0  0  0  0  0  0  0  0  0  0  0
  1 10  2  0  0  0  0
  1 12  1  0  0  0  0
  1 13  1  0  0  0  0
  2 12  2  0  0  0  0
  2 17  1  0  0  0  0
  3  8  1  0  0  0  0
  3 11  1  0  0  0  0
  3 15  1  0  0  0  0
  3 22  1  0  0  0  0
  4  5  2  0  0  0  0
  4 28  1  0  0  0  0
  5 13  1  0  0  0  0
  5 17  1  0  0  0  0
  6 16  1  0  0  0  0
  6 20  1  0  0  0  0
  6 30  2  0  0  0  0
  7 19  1  0  0  0  0
  7 28  1  0  0  0  0
  9 29  1  0  0  0  0
 10 14  1  0  0  0  0
 12 22  1  0  0  0  0
 13 26  2  0  0  0  0
 14 20  2  0  0  0  0
 16 25  1  0  0  0  0
 17 19  1  0  0  0  0
 18 24  2  0  0  0  0
 18 29  1  0  0  0  0
 18 30  1  0  0  0  0
 20 26  1  0  0  0  0
 21 24  1  0  0  0  0
 21 25  2  0  0  0  0
 23 28  2  0  0  0  0
 27 29  2  0  0  0  0
M  END
>  <Original_Directory>
4lag_X_rec_4lek_1dn_lig_tt_docked_2_pocket10

>  <Original_Filename>
4lag_X_rec_4lek_1dn_lig_tt_docked_2_pocket10_gen_sample_8.sdf

>  <Molecule_ID>
sample_8

>  <logS>
-3.9621799

$$$$