/tmp/tmpewytpf_h
  MOE2022           3D

 35 41  0  0  1  0  0  0  0  0999 V2000
    8.2520    6.7210   29.8700 C   0  0  3  0  0  0  0  0  0  0  0  0
    7.6020    5.8770   32.1270 C   0  0  0  0  0  0  0  0  0  0  0  0
    8.7640    7.1270   26.5860 O   0  0  0  0  0  0  0  0  0  0  0  0
    6.7900   12.8540   22.7080 C   0  0  3  0  0  0  0  0  0  0  0  0
    7.5950    7.6330   26.7570 C   0  0  0  0  0  0  0  0  0  0  0  0
    5.5660    3.7600   31.5100 C   0  0  0  0  0  0  0  0  0  0  0  0
    6.7470    3.5830   32.1910 C   0  0  0  0  0  0  0  0  0  0  0  0
    7.4980    4.6240   32.7010 C   0  0  0  0  0  0  0  0  0  0  0  0
    6.0420   11.9900   21.6710 C   0  0  3  0  0  0  0  0  0  0  0  0
    5.9600    8.9650   25.6600 C   0  0  0  0  0  0  0  0  0  0  0  0
    7.5800    9.1430   30.2980 C   0  0  0  0  0  0  0  0  0  0  0  0
    5.4160    9.3950   26.8770 C   0  0  0  0  0  0  0  0  0  0  0  0
    5.2140    9.4220   22.2230 C   0  0  0  0  0  0  0  0  0  0  0  0
    5.6380    8.6350   23.2920 N   0  0  0  0  0  0  0  0  0  0  0  0
    6.7070   12.1520   20.3050 C   0  0  0  0  0  0  0  0  0  0  0  0
    6.1170   10.6120   22.2540 C   0  0  3  0  0  0  0  0  0  0  0  0
    4.2760    9.1950   21.5060 O   0  0  0  0  0  0  0  0  0  0  0  0
    5.8760    9.5810   24.3500 C   0  0  0  0  0  0  0  0  0  0  0  0
    6.2160   14.2500   22.3960 C   0  0  0  0  0  0  0  0  0  0  0  0
    6.3050   12.2110   24.0300 C   0  0  0  0  0  0  0  0  0  0  0  0
    5.9840    8.9200   28.0630 C   0  0  0  0  0  0  0  0  0  0  0  0
    5.1390    4.9250   30.9230 C   0  0  0  0  0  0  0  0  0  0  0  0
    7.2000    6.2090   30.8320 C   0  0  0  0  0  0  0  0  0  0  0  0
    5.9170    5.9630   30.4200 C   0  0  0  0  0  0  0  0  0  0  0  0
    6.6920    7.7420   25.6530 C   0  0  3  0  0  0  0  0  0  0  0  0
    5.8930    7.2690   23.4140 C   0  0  0  0  0  0  0  0  0  0  0  0
    6.7350   14.6860   21.0180 C   0  0  0  0  0  0  0  0  0  0  0  0
    7.2040    8.2060   28.0190 C   0  0  0  0  0  0  0  0  0  0  0  0
    9.5350    6.7750   30.5770 N   0  0  0  0  0  0  0  0  0  0  0  0
    9.5100    8.5320   28.9740 C   0  0  0  0  0  0  0  0  0  0  0  0
    6.7470   13.6300   19.9090 C   0  0  0  0  0  0  0  0  0  0  0  0
    8.0590    8.1320   29.2710 C   0  0  2  0  0  0  0  0  0  0  0  0
    6.5640   10.7400   23.7040 C   0  0  3  0  0  0  0  0  0  0  0  0
    6.5120    6.8380   24.5660 C   0  0  0  0  0  0  0  0  0  0  0  0
   10.2560    7.9850   30.1850 C   0  0  0  0  0  0  0  0  0  0  0  0
  1 23  1  0  0  0  0
  1 29  1  0  0  0  0
  1 32  1  0  0  0  0
  2  8  1  0  0  0  0
  2 23  2  0  0  0  0
  3  5  1  0  0  0  0
  4  9  1  0  0  0  0
  4 19  1  0  0  0  0
  4 20  1  0  0  0  0
  5 25  1  0  0  0  0
  5 28  2  0  0  0  0
  6  7  2  0  0  0  0
  6 22  1  0  0  0  0
  7  8  1  0  0  0  0
  9 15  1  0  0  0  0
  9 16  1  0  0  0  0
 10 12  1  0  0  0  0
 10 18  2  0  0  0  0
 10 25  1  0  0  0  0
 11 32  1  0  0  0  0
 12 21  2  0  0  0  0
 13 14  1  0  0  0  0
 13 16  1  0  0  0  0
 13 17  2  0  0  0  0
 14 18  1  0  0  0  0
 14 26  1  0  0  0  0
 15 31  1  0  0  0  0
 16 33  1  0  0  0  0
 18 33  1  0  0  0  0
 19 27  1  0  0  0  0
 20 33  1  0  0  0  0
 21 28  1  0  0  0  0
 22 24  2  0  0  0  0
 23 24  1  0  0  0  0
 25 34  1  0  0  0  0
 26 34  2  0  0  0  0
 27 31  1  0  0  0  0
 28 32  1  0  0  0  0
 29 35  1  0  0  0  0
 30 32  1  0  0  0  0
 30 35  1  0  0  0  0
M  END
>  <Original_Directory>
1zxc_A_rec_2i47_kgy_lig_tt_docked_6_pocket10

>  <Original_Filename>
1zxc_A_rec_2i47_kgy_lig_tt_docked_6_pocket10_gen_sample_4.sdf

>  <Molecule_ID>
sample_4

>  <logS>
-5.8954201

$$$$