/tmp/tmpda_oarhn
  MOE2022           3D

 30 34  0  0  1  0  0  0  0  0999 V2000
   49.6880   42.0710    0.3000 C   0  0  0  0  0  0  0  0  0  0  0  0
   46.2990   38.8320   -1.7920 C   0  0  3  0  0  0  0  0  0  0  0  0
   49.6140   43.4520    0.4910 C   0  0  0  0  0  0  0  0  0  0  0  0
   51.2750   43.5160   -2.1930 C   0  0  0  0  0  0  0  0  0  0  0  0
   56.4520   46.7120   -1.9070 C   0  0  0  0  0  0  0  0  0  0  0  0
   55.2590   46.5910    0.3170 C   0  0  0  0  0  0  0  0  0  0  0  0
   50.6810   42.2290   -2.0880 C   0  0  0  0  0  0  0  0  0  0  0  0
   47.5080   39.8020   -1.7170 C   0  0  0  0  0  0  0  0  0  0  0  0
   46.6670   37.4260    0.1460 O   0  0  0  0  0  0  0  0  0  0  0  0
   46.4930   39.5040   -4.2820 C   0  0  0  0  0  0  0  0  0  0  0  0
   50.2840   41.3820   -3.2460 C   0  0  0  0  0  0  0  0  0  0  0  0
   53.4550   45.8140   -1.3190 C   0  0  0  0  0  0  0  0  0  0  0  0
   55.5640   45.9520   -2.7160 C   0  0  0  0  0  0  0  0  0  0  0  0
   48.1020   36.9880   -1.7120 C   0  0  0  0  0  0  0  0  0  0  0  0
   50.2060   40.2170   -1.1980 O   0  0  0  0  0  0  0  0  0  0  0  0
   54.2420   45.5890   -2.5050 C   0  0  0  0  0  0  0  0  0  0  0  0
   46.7260   37.4380   -1.2760 C   0  0  3  0  0  0  0  0  0  0  0  0
   50.2480   44.5350   -0.1580 C   0  0  0  0  0  0  0  0  0  0  0  0
   50.2490   41.5510   -0.9240 C   0  0  0  0  0  0  0  0  0  0  0  0
   54.0300   46.0030    0.0100 C   0  0  0  0  0  0  0  0  0  0  0  0
   49.8870   40.0790   -2.5810 C   0  0  3  0  0  0  0  0  0  0  0  0
   45.7460   38.7210   -3.2150 C   0  0  0  0  0  0  0  0  0  0  0  0
   48.5740   39.3180   -2.7470 C   0  0  2  0  0  0  0  0  0  0  0  0
   48.0290   39.4100   -4.2080 C   0  0  3  0  0  0  0  0  0  0  0  0
   56.3210   47.0010   -0.5420 C   0  0  0  0  0  0  0  0  0  0  0  0
   51.9440   45.8770   -1.5000 C   0  0  0  0  0  0  0  0  0  0  0  0
   51.1590   44.5780   -1.2720 C   0  0  0  0  0  0  0  0  0  0  0  0
   48.9440   37.9290   -2.4170 N   0  0  0  0  0  0  0  0  0  0  0  0
   48.4070   41.5550   -5.6750 N   0  0  0  0  0  0  0  0  0  0  0  0
   48.4030   40.6040   -5.0170 C   0  0  0  0  0  0  0  0  0  0  0  0
  1  3  1  0  0  0  0
  1 19  2  0  0  0  0
  2  8  1  0  0  0  0
  2 17  1  0  0  0  0
  2 22  1  0  0  0  0
  3 18  1  0  0  0  0
  4  7  2  0  0  0  0
  4 27  1  0  0  0  0
  5 13  2  0  0  0  0
  5 25  1  0  0  0  0
  6 20  2  0  0  0  0
  6 25  1  0  0  0  0
  7 11  1  0  0  0  0
  7 19  1  0  0  0  0
  8 23  1  0  0  0  0
  9 17  1  0  0  0  0
 10 22  1  0  0  0  0
 10 24  1  0  0  0  0
 11 21  1  0  0  0  0
 12 16  2  0  0  0  0
 12 20  1  0  0  0  0
 12 26  1  0  0  0  0
 13 16  1  0  0  0  0
 14 17  1  0  0  0  0
 14 28  2  0  0  0  0
 15 19  1  0  0  0  0
 15 21  1  0  0  0  0
 18 27  2  0  0  0  0
 21 23  1  0  0  0  0
 23 24  1  0  0  0  0
 23 28  1  0  0  0  0
 24 30  1  0  0  0  0
 26 27  1  0  0  0  0
 29 30  3  0  0  0  0
M  END
>  <Original_Directory>
3g0x_A_rec_2fpy_ilf_lig_tt_docked_0_pocket10

>  <Original_Filename>
3g0x_A_rec_2fpy_ilf_lig_tt_docked_0_pocket10_gen_sample_11.sdf

>  <Molecule_ID>
sample_11

>  <logS>
-4.3796902

$$$$