/tmp/tmp5yyeoxmr
  MOE2022           3D

 30 33  0  0  1  0  0  0  0  0999 V2000
  -21.3950   20.8310  -21.1880 C   0  0  3  0  0  0  0  0  0  0  0  0
  -20.4690   20.4990  -22.3270 C   0  0  0  0  0  0  0  0  0  0  0  0
  -20.0710   17.7200  -24.6410 O   0  0  0  0  0  0  0  0  0  0  0  0
  -23.9270   22.4800  -19.0320 C   0  0  0  0  0  0  0  0  0  0  0  0
  -27.6870   22.7500  -19.0000 C   0  0  0  0  0  0  0  0  0  0  0  0
  -25.1960   22.7970  -19.5660 C   0  0  0  0  0  0  0  0  0  0  0  0
  -18.7140   19.6280  -24.3030 C   0  0  0  0  0  0  0  0  0  0  0  0
  -25.9470   23.4640  -17.3800 C   0  0  0  0  0  0  0  0  0  0  0  0
  -25.3960   22.8510  -20.9130 O   0  0  0  0  0  0  0  0  0  0  0  0
  -21.1850   20.0250  -19.9430 C   0  0  0  0  0  0  0  0  0  0  0  0
  -26.2610   23.0580  -18.6840 C   0  0  0  0  0  0  0  0  0  0  0  0
  -22.5530   21.8290  -21.1450 C   0  0  0  0  0  0  0  0  0  0  0  0
  -21.1860   20.8720  -18.6930 C   0  0  0  0  0  0  0  0  0  0  0  0
  -20.8070   19.4260  -23.1440 C   0  0  0  0  0  0  0  0  0  0  0  0
  -27.9260   21.6080  -19.7420 N   0  0  0  0  0  0  0  0  0  0  0  0
  -18.3320   20.6310  -23.4250 C   0  0  0  0  0  0  0  0  0  0  0  0
  -21.5310   22.3230  -18.9740 C   0  0  0  0  0  0  0  0  0  0  0  0
  -29.1330   20.3060  -18.0370 C   0  0  0  0  0  0  0  0  0  0  0  0
  -28.8240   20.6220  -19.3450 C   0  0  0  0  0  0  0  0  0  0  0  0
  -24.7640   23.0130  -16.8200 C   0  0  0  0  0  0  0  0  0  0  0  0
  -28.5810   23.4780  -18.6100 O   0  0  0  0  0  0  0  0  0  0  0  0
  -19.9270   18.9800  -24.1230 C   0  0  0  0  0  0  0  0  0  0  0  0
  -23.8290   22.3770  -17.6320 C   0  0  0  0  0  0  0  0  0  0  0  0
  -19.2140   21.0800  -22.4490 C   0  0  0  0  0  0  0  0  0  0  0  0
  -30.4780   18.0840  -21.1230 O   0  0  0  0  0  0  0  0  0  0  0  0
  -29.2610   19.8130  -20.3440 N   0  0  0  0  0  0  0  0  0  0  0  0
  -29.9610   19.2150  -17.7790 C   0  0  0  0  0  0  0  0  0  0  0  0
  -22.7480   22.3730  -19.7940 N   0  0  0  0  0  0  0  0  0  0  0  0
  -30.2390   18.3240  -18.8200 C   0  0  0  0  0  0  0  0  0  0  0  0
  -30.1870   18.8170  -20.1470 C   0  0  0  0  0  0  0  0  0  0  0  0
  1  2  1  0  0  0  0
  1 10  1  0  0  0  0
  1 12  1  0  0  0  0
  2 14  1  0  0  0  0
  2 24  2  0  0  0  0
  3 22  1  0  0  0  0
  4  6  1  0  0  0  0
  4 23  2  0  0  0  0
  4 28  1  0  0  0  0
  5 11  1  0  0  0  0
  5 15  1  0  0  0  0
  5 21  2  0  0  0  0
  6  9  1  0  0  0  0
  6 11  2  0  0  0  0
  7 16  2  0  0  0  0
  7 22  1  0  0  0  0
  8 11  1  0  0  0  0
  8 20  2  0  0  0  0
 10 13  1  0  0  0  0
 12 28  1  0  0  0  0
 13 17  1  0  0  0  0
 14 22  2  0  0  0  0
 15 19  1  0  0  0  0
 16 24  1  0  0  0  0
 17 28  1  0  0  0  0
 18 19  1  0  0  0  0
 18 27  2  0  0  0  0
 19 26  2  0  0  0  0
 20 23  1  0  0  0  0
 25 30  2  0  0  0  0
 26 30  1  0  0  0  0
 27 29  1  0  0  0  0
 29 30  1  0  0  0  0
M  END
>  <Original_Directory>
4cwr_A_rec_5lo5_70m_lig_tt_min_0_pocket10

>  <Original_Filename>
4cwr_A_rec_5lo5_70m_lig_tt_min_0_pocket10_gen_sample_14.sdf

>  <Molecule_ID>
sample_14

>  <logS>
-4.3968

$$$$