/tmp/tmp4i8bhw0s
  MOE2022           3D

 25 28  0  0  1  0  0  0  0  0999 V2000
  -21.3110   22.1050  -19.0190 C   0  0  0  0  0  0  0  0  0  0  0  0
  -23.1360   22.1270  -20.6010 N   0  0  0  0  0  0  0  0  0  0  0  0
  -28.8060   19.3500  -20.5810 C   0  0  0  0  0  0  0  0  0  0  0  0
  -25.7080   22.9170  -18.3470 N   0  0  0  0  0  0  0  0  0  0  0  0
  -29.8310   19.1210  -18.3400 C   0  0  3  0  0  0  0  0  0  0  0  0
  -27.6670   23.6760  -17.1260 C   0  0  0  0  0  0  0  0  0  0  0  0
  -29.7690   19.9990  -19.5880 C   0  0  3  0  0  0  0  0  0  0  0  0
  -23.4380   22.9150  -18.3920 N   0  0  0  0  0  0  0  0  0  0  0  0
  -31.1710   20.0390  -20.1740 C   0  0  0  0  0  0  0  0  0  0  0  0
  -21.7620   22.0180  -20.3950 C   0  0  0  0  0  0  0  0  0  0  0  0
  -24.5520   23.1530  -17.4940 C   0  0  0  0  0  0  0  0  0  0  0  0
  -22.1500   22.6210  -18.0930 C   0  0  0  0  0  0  0  0  0  0  0  0
  -32.0650   19.1150  -19.3850 C   0  0  0  0  0  0  0  0  0  0  0  0
  -27.5370   21.3760  -17.8060 C   0  0  0  0  0  0  0  0  0  0  0  0
  -29.2850   19.7160  -17.0690 C   0  0  0  0  0  0  0  0  0  0  0  0
  -25.3350   22.9100  -19.7510 C   0  0  0  0  0  0  0  0  0  0  0  0
  -31.2430   18.5670  -18.2340 C   0  0  0  0  0  0  0  0  0  0  0  0
  -28.7460   23.3740  -16.2930 C   0  0  0  0  0  0  0  0  0  0  0  0
  -29.2060   22.0710  -16.2200 C   0  0  0  0  0  0  0  0  0  0  0  0
  -28.6660   21.0980  -17.0470 C   0  0  0  0  0  0  0  0  0  0  0  0
  -23.8250   23.1250  -19.7710 C   0  0  3  0  0  0  0  0  0  0  0  0
  -29.5330   19.1840  -16.0110 O   0  0  0  0  0  0  0  0  0  0  0  0
  -27.3190   24.9770  -17.3040 O   0  0  0  0  0  0  0  0  0  0  0  0
  -26.9580   22.6420  -17.7690 C   0  0  0  0  0  0  0  0  0  0  0  0
  -21.0780   21.4910  -21.2780 O   0  0  0  0  0  0  0  0  0  0  0  0
  1 10  1  0  0  0  0
  1 12  2  0  0  0  0
  2 10  1  0  0  0  0
  2 21  1  0  0  0  0
  3  7  1  0  0  0  0
  4 11  1  0  0  0  0
  4 16  1  0  0  0  0
  4 24  1  0  0  0  0
  5  7  1  0  0  0  0
  5 15  1  0  0  0  0
  5 17  1  0  0  0  0
  6 18  1  0  0  0  0
  6 23  1  0  0  0  0
  6 24  2  0  0  0  0
  7  9  1  0  0  0  0
  8 11  1  0  0  0  0
  8 12  1  0  0  0  0
  8 21  1  0  0  0  0
  9 13  1  0  0  0  0
 10 25  2  0  0  0  0
 13 17  2  0  0  0  0
 14 20  2  0  0  0  0
 14 24  1  0  0  0  0
 15 20  1  0  0  0  0
 15 22  2  0  0  0  0
 16 21  1  0  0  0  0
 18 19  2  0  0  0  0
 19 20  1  0  0  0  0
M  END
>  <Original_Directory>
5ggz_B_rec_4cwr_haj_lig_tt_min_0_pocket10

>  <Original_Filename>
5ggz_B_rec_4cwr_haj_lig_tt_min_0_pocket10_gen_sample_3.sdf

>  <Molecule_ID>
sample_3

>  <logS>
-2.8056901

$$$$