/tmp/tmpjxhp6hfj
  MOE2022           3D

 10 11  0  0  1  0  0  0  0  0999 V2000
   22.8970   -1.0310   -7.5110 C   0  0  0  0  0  0  0  0  0  0  0  0
   22.3320    1.0360   -6.0780 C   0  0  3  0  0  0  0  0  0  0  0  0
   24.5720    2.0560   -8.7900 O   0  0  0  0  0  0  0  0  0  0  0  0
   21.3870    1.7440   -7.0540 C   0  0  0  0  0  0  0  0  0  0  0  0
   23.5120   -0.0550   -8.4700 C   0  0  3  0  0  0  0  0  0  0  0  0
   22.2130   -0.4790   -6.2790 C   0  0  0  0  0  0  0  0  0  0  0  0
   23.7350    1.4840   -6.5260 C   0  0  0  0  0  0  0  0  0  0  0  0
   23.5430    1.4100   -8.0550 C   0  0  1  0  0  0  0  0  0  0  0  0
   22.1890    2.0360   -8.3160 C   0  0  0  0  0  0  0  0  0  0  0  0
   23.5610   -0.4460  -10.1020 Cl  0  0  0  0  0  0  0  0  0  0  0  0
  1  5  1  0  0  0  0
  1  6  2  0  0  0  0
  2  4  1  0  0  0  0
  2  6  1  0  0  0  0
  2  7  1  0  0  0  0
  3  8  1  0  0  0  0
  4  9  1  0  0  0  0
  5  8  1  0  0  0  0
  5 10  1  0  0  0  0
  7  8  1  0  0  0  0
  8  9  1  0  0  0  0
M  END
>  <Original_Directory>
4mav_A_rec_4mav_rib_lig_tt_min_0_pocket10

>  <Original_Filename>
4mav_A_rec_4mav_rib_lig_tt_min_0_pocket10_gen_sample_15.sdf

>  <Molecule_ID>
sample_15

>  <logS>
-1.31857

$$$$