/tmp/tmpk4wq2sel
  MOE2022           3D

 21 23  0  0  1  0  0  0  0  0999 V2000
    5.9300   82.4110   47.2970 C   0  0  0  0  0  0  0  0  0  0  0  0
    6.1820   80.2780   48.2500 O   0  0  0  0  0  0  0  0  0  0  0  0
    6.1900   83.3540   46.3040 C   0  0  0  0  0  0  0  0  0  0  0  0
    9.5200   84.5990   43.8760 C   0  0  3  0  0  0  0  0  0  0  0  0
   11.4570   85.2510   42.5190 N   0  0  0  0  0  0  0  0  0  0  0  0
    7.9190   80.9470   46.7290 C   0  0  0  0  0  0  0  0  0  0  0  0
    6.9390   81.3900   47.8060 C   0  0  1  0  0  0  0  0  0  0  0  0
   12.0570   84.0150   42.4720 C   0  0  0  0  0  0  0  0  0  0  0  0
    7.7140   82.0120   48.9810 C   0  0  0  0  0  0  0  0  0  0  0  0
   11.2720   82.8360   42.5340 C   0  0  0  0  0  0  0  0  0  0  0  0
    9.2530   80.5770   52.1310 C   0  0  0  0  0  0  0  0  0  0  0  0
    9.2630   83.2110   43.9750 N   0  0  0  0  0  0  0  0  0  0  0  0
    9.6320   85.7890   44.2690 N   0  0  0  0  0  0  0  0  0  0  0  0
    9.2610   81.1650   50.7250 C   0  0  0  0  0  0  0  0  0  0  0  0
    7.0990   83.4850   45.2230 C   0  0  0  0  0  0  0  0  0  0  0  0
    8.6960   81.6430   45.8740 C   0  0  0  0  0  0  0  0  0  0  0  0
   13.2630   83.9810   42.2270 O   0  0  0  0  0  0  0  0  0  0  0  0
   10.0900   82.4960   43.1250 C   0  0  0  0  0  0  0  0  0  0  0  0
    8.3570   82.7820   45.0140 C   0  0  0  0  0  0  0  0  0  0  0  0
    7.9060   81.1220   50.1310 N   0  0  0  0  0  0  0  0  0  0  0  0
   10.3060   85.3920   43.2500 C   0  0  0  0  0  0  0  0  0  0  0  0
  1  3  1  0  0  0  0
  1  7  1  0  0  0  0
  2  7  1  0  0  0  0
  3 15  1  0  0  0  0
  4 12  1  0  0  0  0
  4 13  1  0  0  0  0
  4 21  1  0  0  0  0
  5  8  1  0  0  0  0
  5 21  2  0  0  0  0
  6  7  1  0  0  0  0
  6 16  1  0  0  0  0
  7  9  1  0  0  0  0
  8 10  1  0  0  0  0
  8 17  2  0  0  0  0
  9 20  1  0  0  0  0
 10 18  2  0  0  0  0
 11 14  1  0  0  0  0
 12 18  1  0  0  0  0
 12 19  1  0  0  0  0
 13 21  1  0  0  0  0
 14 20  1  0  0  0  0
 15 19  1  0  0  0  0
 16 19  2  0  0  0  0
M  END
>  <Original_Directory>
3ggc_A_rec_5brn_4x2_lig_tt_min_0_pocket10

>  <Original_Filename>
3ggc_A_rec_5brn_4x2_lig_tt_min_0_pocket10_gen_sample_14.sdf

>  <Molecule_ID>
sample_14

>  <logS>
-1.37326

$$$$