/tmp/tmpu13i4eqr
  MOE2022           3D

  9 10  0  0  0  0  0  0  0  0999 V2000
   36.0320  -13.0350   28.1010 C   0  0  0  0  0  0  0  0  0  0  0  0
   34.8490  -13.2710   29.0370 C   0  0  0  0  0  0  0  0  0  0  0  0
   37.4670  -16.1240   26.3510 C   0  0  0  0  0  0  0  0  0  0  0  0
   36.3810  -14.4010   27.5870 C   0  0  0  0  0  0  0  0  0  0  0  0
   36.7650  -17.0860   27.0620 C   0  0  0  0  0  0  0  0  0  0  0  0
   35.5980  -15.3580   28.2200 C   0  0  0  0  0  0  0  0  0  0  0  0
   37.3480  -14.7760   26.6790 C   0  0  0  0  0  0  0  0  0  0  0  0
   35.8150  -16.7050   27.9970 C   0  0  0  0  0  0  0  0  0  0  0  0
   34.4140  -14.7230   28.8850 C   0  0  0  0  0  0  0  0  0  0  0  0
  1  2  1  0  0  0  0
  1  4  1  0  0  0  0
  2  9  1  0  0  0  0
  3  5  1  0  0  0  0
  3  7  2  0  0  0  0
  4  6  2  0  0  0  0
  4  7  1  0  0  0  0
  5  8  2  0  0  0  0
  6  8  1  0  0  0  0
  6  9  1  0  0  0  0
M  END
>  <Original_Directory>
4ty6_A_rec_1zhp_ben_lig_tt_docked_9_pocket10

>  <Original_Filename>
4ty6_A_rec_1zhp_ben_lig_tt_docked_9_pocket10_gen_sample_17.sdf

>  <Molecule_ID>
sample_17

>  <logS>
-2.7458999

$$$$