/tmp/tmp9kwynlb_
  MOE2022           3D

 28 30  0  0  1  0  0  0  0  0999 V2000
   18.6320    6.6350  111.0050 C   0  0  0  0  0  0  0  0  0  0  0  0
   15.5320    6.1680  115.6640 C   0  0  0  0  0  0  0  0  0  0  0  0
   16.6260    5.2150  111.4290 N   0  0  0  0  0  0  0  0  0  0  0  0
   16.4570   -0.5930  114.9200 C   0  0  0  0  0  0  0  0  0  0  0  0
   14.5630   -3.4670  114.7390 C   0  0  0  0  0  0  0  0  0  0  0  0
   15.1630    4.0800  113.6910 C   0  0  0  0  0  0  0  0  0  0  0  0
   15.6300    5.9680  112.1320 C   0  0  3  0  0  0  0  0  0  0  0  0
   16.1670    7.3490  112.5240 C   0  0  0  0  0  0  0  0  0  0  0  0
   16.1140    0.7440  115.0160 C   0  0  0  0  0  0  0  0  0  0  0  0
   15.8180   -1.5360  115.7090 C   0  0  0  0  0  0  0  0  0  0  0  0
   15.1330    5.4030  113.3810 N   0  0  0  0  0  0  0  0  0  0  0  0
   16.9520   -3.2210  114.4890 O   0  0  0  0  0  0  0  0  0  0  0  0
   18.3970    7.7810  111.9300 C   0  0  0  0  0  0  0  0  0  0  0  0
   15.2190    1.1350  115.9980 C   0  0  0  0  0  0  0  0  0  0  0  0
   13.2220    2.5720  115.2800 O   0  0  0  0  0  0  0  0  0  0  0  0
   16.1140   -3.8270  116.5430 N   0  0  0  0  0  0  0  0  0  0  0  0
   14.9200    3.1940  112.8850 O   0  0  0  0  0  0  0  0  0  0  0  0
   15.1610   -1.0960  116.8520 C   0  0  0  0  0  0  0  0  0  0  0  0
   15.4670    8.3310  112.5430 O   0  0  0  0  0  0  0  0  0  0  0  0
   14.8460    0.2490  116.9950 C   0  0  0  0  0  0  0  0  0  0  0  0
   14.4850    2.7330  115.9500 S   0  0  0  0  0  0  0  0  0  0  0  0
   15.3900    3.8520  115.0340 N   0  0  0  0  0  0  0  0  0  0  0  0
   17.5250    7.3870  113.0040 O   0  0  0  0  0  0  0  0  0  0  0  0
   15.8640   -3.0010  115.3800 C   0  0  2  0  0  0  0  0  0  0  0  0
   16.2450    4.8230  115.7270 C   0  0  0  0  0  0  0  0  0  0  0  0
   14.4580    3.2440  117.3010 O   0  0  0  0  0  0  0  0  0  0  0  0
   17.8390    5.5300  111.0600 C   0  0  0  0  0  0  0  0  0  0  0  0
   14.6460    6.3000  114.4270 C   0  0  0  0  0  0  0  0  0  0  0  0
  1 13  1  0  0  0  0
  1 27  1  0  0  0  0
  2 25  1  0  0  0  0
  2 28  1  0  0  0  0
  3  7  1  0  0  0  0
  3 27  2  0  0  0  0
  4  9  1  0  0  0  0
  4 10  2  0  0  0  0
  5 24  1  0  0  0  0
  6 11  1  0  0  0  0
  6 17  2  0  0  0  0
  6 22  1  0  0  0  0
  7  8  1  0  0  0  0
  7 11  1  0  0  0  0
  8 19  2  0  0  0  0
  8 23  1  0  0  0  0
  9 14  2  0  0  0  0
 10 18  1  0  0  0  0
 10 24  1  0  0  0  0
 11 28  1  0  0  0  0
 12 24  1  0  0  0  0
 13 23  1  0  0  0  0
 14 20  1  0  0  0  0
 14 21  1  0  0  0  0
 15 21  2  0  0  0  0
 16 24  1  0  0  0  0
 18 20  2  0  0  0  0
 21 22  1  0  0  0  0
 21 26  2  0  0  0  0
 22 25  1  0  0  0  0
M  END
>  <Original_Directory>
4uaz_A_rec_5eoz_0kx_lig_tt_docked_2_pocket10

>  <Original_Filename>
4uaz_A_rec_5eoz_0kx_lig_tt_docked_2_pocket10_gen_sample_12.sdf

>  <Molecule_ID>
sample_12

>  <logS>
-2.0824399

$$$$