/tmp/tmpi9pcj67k
  MOE2022           3D

 14 15  0  0  1  0  0  0  0  0999 V2000
  -13.0930    1.3730   -0.0910 C   0  0  1  0  0  0  0  0  0  0  0  0
  -13.3040    1.8170   -2.4400 O   0  0  0  0  0  0  0  0  0  0  0  0
   -8.9290    2.2260   -0.8350 C   0  0  0  0  0  0  0  0  0  0  0  0
  -14.1560    0.6660    0.3750 F   0  0  0  0  0  0  0  0  0  0  0  0
  -11.9640    0.5110   -0.4630 N   0  0  0  0  0  0  0  0  0  0  0  0
  -13.4800    2.2510   -1.2890 C   0  0  0  0  0  0  0  0  0  0  0  0
  -10.8020    1.1730   -0.1930 C   0  0  0  0  0  0  0  0  0  0  0  0
  -13.9390    3.4060   -1.0320 O   0  0  0  0  0  0  0  0  0  0  0  0
   -8.8880    3.0250    0.2730 N   0  0  0  0  0  0  0  0  0  0  0  0
  -11.0670    2.2550    0.6770 C   0  0  0  0  0  0  0  0  0  0  0  0
   -9.6170    1.0550   -0.8220 O   0  0  0  0  0  0  0  0  0  0  0  0
  -12.5100    2.3010    0.9820 C   0  0  0  0  0  0  0  0  0  0  0  0
   -8.3700    2.6480   -1.9930 N   0  0  0  0  0  0  0  0  0  0  0  0
  -10.0550    3.1540    0.9310 C   0  0  0  0  0  0  0  0  0  0  0  0
  1  4  1  0  0  0  0
  1  5  1  0  0  0  0
  1  6  1  0  0  0  0
  1 12  1  0  0  0  0
  2  6  2  0  0  0  0
  3  9  2  0  0  0  0
  3 11  1  0  0  0  0
  3 13  1  0  0  0  0
  5  7  2  0  0  0  0
  6  8  1  0  0  0  0
  7 10  1  0  0  0  0
  7 11  1  0  0  0  0
  9 14  1  0  0  0  0
 10 12  1  0  0  0  0
 10 14  2  0  0  0  0
M  END
>  <Original_Directory>
5dr4_A_rec_5dr0_5gc_lig_tt_docked_7_pocket10

>  <Original_Filename>
5dr4_A_rec_5dr0_5gc_lig_tt_docked_7_pocket10_gen_sample_17.sdf

>  <Molecule_ID>
sample_17

>  <logS>
-1.68023

$$$$