/tmp/tmpau1kzgzd
  MOE2022           3D

 27 30  0  0  1  0  0  0  0  0999 V2000
  -33.7170   10.5440   27.0610 O   0  0  0  0  0  0  0  0  0  0  0  0
  -33.5010   14.1970   28.6170 C   0  0  0  0  0  0  0  0  0  0  0  0
  -34.8980   17.1420   28.0750 C   0  0  3  0  0  0  0  0  0  0  0  0
  -36.0660   19.3760   33.4550 C   0  0  0  0  0  0  0  0  0  0  0  0
  -35.3040   16.1130   26.1090 C   0  0  0  0  0  0  0  0  0  0  0  0
  -32.8970   11.8920   27.0380 P   0  0  0  0  0  0  0  0  0  0  0  0
  -37.4050   17.0290   31.9720 C   0  0  0  0  0  0  0  0  0  0  0  0
  -32.1610   12.0740   25.7630 O   0  0  0  0  0  0  0  0  0  0  0  0
  -35.9920   14.4240   31.3670 O   0  0  0  0  0  0  0  0  0  0  0  0
  -33.3580   16.8690   29.8390 O   0  0  0  0  0  0  0  0  0  0  0  0
  -34.3940   12.6850   26.3920 N   0  0  0  0  0  0  0  0  0  0  0  0
  -35.3260   12.9710   27.4640 C   0  0  0  0  0  0  0  0  0  0  0  0
  -37.9570   18.0530   32.6900 C   0  0  0  0  0  0  0  0  0  0  0  0
  -34.8520   14.0690   28.2680 N   0  0  0  0  0  0  0  0  0  0  0  0
  -36.0950   16.6570   31.7820 C   0  0  0  0  0  0  0  0  0  0  0  0
  -34.0090   17.6910   27.1960 O   0  0  0  0  0  0  0  0  0  0  0  0
  -35.8250   15.5660   30.9240 C   0  0  0  0  0  0  0  0  0  0  0  0
  -37.4120   19.1620   33.2880 C   0  0  0  0  0  0  0  0  0  0  0  0
  -34.6280   17.4330   25.9430 C   0  0  0  0  0  0  0  0  0  0  0  0
  -35.7260   15.1520   28.4990 C   0  0  3  0  0  0  0  0  0  0  0  0
  -34.5340   16.7360   29.3160 C   0  0  0  0  0  0  0  0  0  0  0  0
  -31.5110   11.0980   27.4350 O   0  0  0  0  0  0  0  0  0  0  0  0
  -35.3640   15.7630   29.6850 N   0  0  0  0  0  0  0  0  0  0  0  0
  -32.5510   13.1170   28.2800 C   0  0  0  0  0  0  0  0  0  0  0  0
  -35.0850   18.5030   33.0760 C   0  0  0  0  0  0  0  0  0  0  0  0
  -35.5060   16.0980   27.5180 N   0  0  0  0  0  0  0  0  0  0  0  0
  -35.0650   17.3550   32.3500 C   0  0  0  0  0  0  0  0  0  0  0  0
  1  6  1  0  0  0  0
  2 14  1  0  0  0  0
  2 24  1  0  0  0  0
  3 16  1  0  0  0  0
  3 21  1  0  0  0  0
  3 26  1  0  0  0  0
  4 18  1  0  0  0  0
  4 25  2  0  0  0  0
  5 19  1  0  0  0  0
  5 26  1  0  0  0  0
  6  8  1  0  0  0  0
  6 11  1  0  0  0  0
  6 22  1  0  0  0  0
  6 24  1  0  0  0  0
  7 13  2  0  0  0  0
  7 15  1  0  0  0  0
  9 17  2  0  0  0  0
 10 21  2  0  0  0  0
 11 12  1  0  0  0  0
 12 14  1  0  0  0  0
 13 18  1  0  0  0  0
 14 20  1  0  0  0  0
 15 17  1  0  0  0  0
 15 27  2  0  0  0  0
 16 19  1  0  0  0  0
 17 23  1  0  0  0  0
 20 23  1  0  0  0  0
 20 26  1  0  0  0  0
 21 23  1  0  0  0  0
 25 27  1  0  0  0  0
M  END
>  <Original_Directory>
1hwi_A_rec_1hw9_adp_lig_tt_docked_16_pocket10

>  <Original_Filename>
1hwi_A_rec_1hw9_adp_lig_tt_docked_16_pocket10_gen_sample_9.sdf

>  <Molecule_ID>
sample_9

>  <logS>
-0.14922

$$$$