/tmp/tmpqrfsh04p
  MOE2022           3D

 35 40  0  0  1  0  0  0  0  0999 V2000
  -27.9810  -19.4240    3.5840 C   0  0  0  0  0  0  0  0  0  0  0  0
  -26.9900  -16.2370    1.9070 C   0  0  2  0  0  0  0  0  0  0  0  0
  -26.7390  -13.0060    1.7030 C   0  0  0  0  0  0  0  0  0  0  0  0
  -26.1580  -16.0850   -0.4320 C   0  0  0  0  0  0  0  0  0  0  0  0
  -27.5090  -14.5080    6.8490 C   0  0  0  0  0  0  0  0  0  0  0  0
  -27.7920  -22.5020    4.2580 C   0  0  0  0  0  0  0  0  0  0  0  0
  -24.9470  -18.2520    2.2380 C   0  0  0  0  0  0  0  0  0  0  0  0
  -25.0210  -17.1990    3.3320 C   0  0  0  0  0  0  0  0  0  0  0  0
  -26.5700  -22.0640    3.7630 C   0  0  0  0  0  0  0  0  0  0  0  0
  -26.6370  -11.4330    3.6460 C   0  0  0  0  0  0  0  0  0  0  0  0
  -25.4030  -13.5310    3.8980 C   0  0  0  0  0  0  0  0  0  0  0  0
  -27.3970  -16.3580    5.4080 C   0  0  0  0  0  0  0  0  0  0  0  0
  -27.4700  -12.3250    5.7800 N   0  0  0  0  0  0  0  0  0  0  0  0
  -27.9030  -10.1710    5.0640 N   0  0  0  0  0  0  0  0  0  0  0  0
  -27.2940  -17.6740    1.4510 C   0  0  0  0  0  0  0  0  0  0  0  0
  -26.0210  -14.0270    0.8510 C   0  0  0  0  0  0  0  0  0  0  0  0
  -25.1400  -15.6260   -1.2690 C   0  0  0  0  0  0  0  0  0  0  0  0
  -26.2990  -18.7880    1.7890 C   0  0  3  0  0  0  0  0  0  0  0  0
  -28.8490  -20.2980    4.2000 C   0  0  0  0  0  0  0  0  0  0  0  0
  -28.8960  -21.6620    4.3910 C   0  0  0  0  0  0  0  0  0  0  0  0
  -24.5920  -16.4820   -2.1810 O   0  0  0  0  0  0  0  0  0  0  0  0
  -27.8070  -15.7890    6.5620 N   0  0  0  0  0  0  0  0  0  0  0  0
  -26.1720  -16.2320    3.1940 C   0  0  3  0  0  0  0  0  0  0  0  0
  -26.2650  -20.9960    2.9400 C   0  0  0  0  0  0  0  0  0  0  0  0
  -26.3980  -14.2790    4.7500 C   0  0  0  0  0  0  0  0  0  0  0  0
  -25.0200  -13.5750   -0.0100 C   0  0  0  0  0  0  0  0  0  0  0  0
  -26.6810  -15.6310    4.4580 C   0  0  0  0  0  0  0  0  0  0  0  0
  -28.2300  -15.6570    2.2380 O   0  0  0  0  0  0  0  0  0  0  0  0
  -27.3170  -11.3470    4.8740 C   0  0  0  0  0  0  0  0  0  0  0  0
  -24.6580  -14.3260   -1.1290 C   0  0  0  0  0  0  0  0  0  0  0  0
  -26.3860  -15.4170    0.7770 C   0  0  0  0  0  0  0  0  0  0  0  0
  -26.8830  -19.7580    2.8050 C   0  0  0  0  0  0  0  0  0  0  0  0
  -26.2390  -12.5780    3.0520 C   0  0  3  0  0  0  0  0  0  0  0  0
  -27.1060  -13.6480    5.7860 C   0  0  0  0  0  0  0  0  0  0  0  0
  -27.5460  -14.0870    8.1440 N   0  0  0  0  0  0  0  0  0  0  0  0
  1 19  1  0  0  0  0
  1 32  2  0  0  0  0
  2 15  1  0  0  0  0
  2 23  1  0  0  0  0
  2 28  1  0  0  0  0
  2 31  1  0  0  0  0
  3 16  1  0  0  0  0
  3 33  1  0  0  0  0
  4 17  1  0  0  0  0
  4 31  2  0  0  0  0
  5 22  1  0  0  0  0
  5 34  2  0  0  0  0
  5 35  1  0  0  0  0
  6  9  1  0  0  0  0
  6 20  2  0  0  0  0
  7  8  1  0  0  0  0
  7 18  1  0  0  0  0
  8 23  1  0  0  0  0
  9 24  2  0  0  0  0
 10 29  1  0  0  0  0
 10 33  1  0  0  0  0
 11 25  1  0  0  0  0
 11 33  1  0  0  0  0
 12 22  2  0  0  0  0
 12 27  1  0  0  0  0
 13 29  2  0  0  0  0
 13 34  1  0  0  0  0
 14 29  1  0  0  0  0
 15 18  1  0  0  0  0
 16 26  2  0  0  0  0
 16 31  1  0  0  0  0
 17 21  1  0  0  0  0
 17 30  2  0  0  0  0
 18 32  1  0  0  0  0
 19 20  1  0  0  0  0
 23 27  1  0  0  0  0
 24 32  1  0  0  0  0
 25 27  2  0  0  0  0
 25 34  1  0  0  0  0
 26 30  1  0  0  0  0
M  END
>  <Original_Directory>
3f69_B_rec_3f69_xdr_lig_tt_docked_0_pocket10

>  <Original_Filename>
3f69_B_rec_3f69_xdr_lig_tt_docked_0_pocket10_gen_sample_9.sdf

>  <Molecule_ID>
sample_9

>  <logS>
-5.00951

$$$$