/tmp/tmpx1zogpsn
  MOE2022           3D

 24 26  0  0  1  0  0  0  0  0999 V2000
   11.0310  -38.7870   50.2060 O   0  0  0  0  0  0  0  0  0  0  0  0
    9.6260  -28.8750   45.6740 C   0  0  0  0  0  0  0  0  0  0  0  0
   11.7210  -36.5400   46.1520 N   0  0  0  0  0  0  0  0  0  0  0  0
   11.6900  -36.7440   48.6060 C   0  0  3  0  0  0  0  0  0  0  0  0
   10.8120  -28.1750   45.7200 N   0  0  0  0  0  0  0  0  0  0  0  0
   10.3890  -31.9990   47.2920 C   0  0  3  0  0  0  0  0  0  0  0  0
   11.6930  -35.2270   45.9100 C   0  0  0  0  0  0  0  0  0  0  0  0
    8.8720  -28.7490   44.6920 O   0  0  0  0  0  0  0  0  0  0  0  0
   12.1080  -37.7720   50.0380 P   0  0  0  0  0  0  0  0  0  0  0  0
   11.9390  -28.9020   45.9930 C   0  0  0  0  0  0  0  0  0  0  0  0
   10.5460  -30.6540   46.8450 C   0  0  0  0  0  0  0  0  0  0  0  0
   10.7140  -33.0230   46.4160 C   0  0  0  0  0  0  0  0  0  0  0  0
   12.0740  -35.3650   48.8610 N   0  0  0  0  0  0  0  0  0  0  0  0
   13.4560  -38.3870   49.7880 O   0  0  0  0  0  0  0  0  0  0  0  0
   12.0830  -34.8200   44.7100 N   0  0  0  0  0  0  0  0  0  0  0  0
   10.6810  -33.5300   49.1350 N   0  0  0  0  0  0  0  0  0  0  0  0
   11.2730  -34.2160   46.8730 C   0  0  0  0  0  0  0  0  0  0  0  0
   11.8220  -30.1890   46.5030 C   0  0  0  0  0  0  0  0  0  0  0  0
   12.1200  -36.8660   51.2530 O   0  0  0  0  0  0  0  0  0  0  0  0
   10.2450  -32.3080   48.7110 C   0  0  0  0  0  0  0  0  0  0  0  0
   12.3370  -37.2130   47.3040 C   0  0  0  0  0  0  0  0  0  0  0  0
    9.6940  -31.5230   49.4800 O   0  0  0  0  0  0  0  0  0  0  0  0
   11.3600  -34.3780   48.2870 C   0  0  0  0  0  0  0  0  0  0  0  0
    9.4420  -29.8650   46.6130 N   0  0  0  0  0  0  0  0  0  0  0  0
  1  9  1  0  0  0  0
  2  5  1  0  0  0  0
  2  8  2  0  0  0  0
  2 24  1  0  0  0  0
  3  7  1  0  0  0  0
  3 21  1  0  0  0  0
  4  9  1  0  0  0  0
  4 13  1  0  0  0  0
  4 21  1  0  0  0  0
  5 10  2  0  0  0  0
  6 11  1  0  0  0  0
  6 12  1  0  0  0  0
  6 20  1  0  0  0  0
  7 15  2  0  0  0  0
  7 17  1  0  0  0  0
  9 14  2  0  0  0  0
  9 19  1  0  0  0  0
 10 18  1  0  0  0  0
 11 18  2  0  0  0  0
 11 24  1  0  0  0  0
 12 17  2  0  0  0  0
 13 23  2  0  0  0  0
 16 20  1  0  0  0  0
 16 23  1  0  0  0  0
 17 23  1  0  0  0  0
 20 22  2  0  0  0  0
M  END
>  <Original_Directory>
5nak_A_rec_5nag_8r5_lig_tt_docked_3_pocket10

>  <Original_Filename>
5nak_A_rec_5nag_8r5_lig_tt_docked_3_pocket10_gen_sample_6.sdf

>  <Molecule_ID>
sample_6

>  <logS>
-1.47536

$$$$