/tmp/tmplowktspd
  MOE2022           3D

 32 36  0  0  1  0  0  0  0  0999 V2000
   29.8870    0.5640   14.4570 C   0  0  0  0  0  0  0  0  0  0  0  0
   29.9270   -2.3720   12.1050 C   0  0  0  0  0  0  0  0  0  0  0  0
   32.6100    1.7280   13.6590 C   0  0  0  0  0  0  0  0  0  0  0  0
   30.2250   -0.3790   13.5110 C   0  0  0  0  0  0  0  0  0  0  0  0
   29.6820   -3.3230   14.1780 C   0  0  3  0  0  0  0  0  0  0  0  0
   32.7510   -6.8070   11.4720 C   0  0  0  0  0  0  0  0  0  0  0  0
   29.0870   -3.9450   16.3710 C   0  0  0  0  0  0  0  0  0  0  0  0
   34.3270   -5.7980   16.1830 O   0  0  0  0  0  0  0  0  0  0  0  0
   32.5430    0.4370   13.1890 C   0  0  0  0  0  0  0  0  0  0  0  0
   31.3130   -6.2960    9.5910 C   0  0  0  0  0  0  0  0  0  0  0  0
   28.1870   -2.8770   16.4100 C   0  0  0  0  0  0  0  0  0  0  0  0
   35.2310   -7.7960   15.6600 O   0  0  0  0  0  0  0  0  0  0  0  0
   34.9300   -6.5980   15.3980 C   0  0  0  0  0  0  0  0  0  0  0  0
   29.1880   -1.3640   13.0210 C   0  0  3  0  0  0  0  0  0  0  0  0
   32.6110   -6.1940   13.8680 N   0  0  0  0  0  0  0  0  0  0  0  0
   35.3430   -6.0640   14.2080 N   0  0  0  0  0  0  0  0  0  0  0  0
   30.4480   -3.3530   13.0620 N   0  0  0  0  0  0  0  0  0  0  0  0
   30.4000    1.8200   14.6650 C   0  0  0  0  0  0  0  0  0  0  0  0
   28.8170   -2.2460   14.1830 C   0  0  0  0  0  0  0  0  0  0  0  0
   31.6030   -7.5300    9.0270 C   0  0  0  0  0  0  0  0  0  0  0  0
   29.8950   -4.1370   15.2560 C   0  0  0  0  0  0  0  0  0  0  0  0
   30.9320   -5.0730   15.1750 C   0  0  0  0  0  0  0  0  0  0  0  0
   32.4910   -8.3840    9.6660 C   0  0  0  0  0  0  0  0  0  0  0  0
   33.1310   -7.9830   10.8410 C   0  0  0  0  0  0  0  0  0  0  0  0
   31.5420   -0.5000   13.1200 C   0  0  0  0  0  0  0  0  0  0  0  0
   31.5380   -4.1580   13.0290 C   0  0  0  0  0  0  0  0  0  0  0  0
   31.8890   -5.9410   10.8050 C   0  0  0  0  0  0  0  0  0  0  0  0
   33.3570   -6.3890   12.7690 C   0  0  3  0  0  0  0  0  0  0  0  0
   31.7130   -5.1450   14.0310 C   0  0  0  0  0  0  0  0  0  0  0  0
   31.5470    2.4210   14.2120 C   0  0  0  0  0  0  0  0  0  0  0  0
   27.9970   -2.0810   15.2870 C   0  0  0  0  0  0  0  0  0  0  0  0
   34.8580   -6.4170   12.8850 C   0  0  0  0  0  0  0  0  0  0  0  0
  1  4  2  0  0  0  0
  1 18  1  0  0  0  0
  2 14  1  0  0  0  0
  2 17  1  0  0  0  0
  3  9  1  0  0  0  0
  3 30  2  0  0  0  0
  4 14  1  0  0  0  0
  4 25  1  0  0  0  0
  5 17  1  0  0  0  0
  5 19  1  0  0  0  0
  5 21  1  0  0  0  0
  6 24  2  0  0  0  0
  6 27  1  0  0  0  0
  6 28  1  0  0  0  0
  7 11  2  0  0  0  0
  7 21  1  0  0  0  0
  8 13  1  0  0  0  0
  9 25  2  0  0  0  0
 10 20  1  0  0  0  0
 10 27  2  0  0  0  0
 11 31  1  0  0  0  0
 12 13  2  0  0  0  0
 13 16  1  0  0  0  0
 14 19  1  0  0  0  0
 15 28  1  0  0  0  0
 15 29  1  0  0  0  0
 16 32  1  0  0  0  0
 17 26  1  0  0  0  0
 18 30  1  0  0  0  0
 19 31  2  0  0  0  0
 20 23  2  0  0  0  0
 21 22  2  0  0  0  0
 22 29  1  0  0  0  0
 23 24  1  0  0  0  0
 26 29  2  0  0  0  0
 28 32  1  0  0  0  0
M  END
>  <Original_Directory>
4htx_B_rec_5u7l_7y4_lig_tt_min_0_pocket10

>  <Original_Filename>
4htx_B_rec_5u7l_7y4_lig_tt_min_0_pocket10_gen_sample_15.sdf

>  <Molecule_ID>
sample_15

>  <logS>
-4.80935

$$$$