/tmp/tmpumk24nj0
  MOE2022           3D

 25 29  0  0  1  0  0  0  0  0999 V2000
   18.8920    1.5020    7.4990 C   0  0  0  0  0  0  0  0  0  0  0  0
   19.7080    3.1070   10.7390 N   0  0  0  0  0  0  0  0  0  0  0  0
   17.6610    1.7330    6.9010 C   0  0  0  0  0  0  0  0  0  0  0  0
   19.2980    2.0140    8.7000 C   0  0  0  0  0  0  0  0  0  0  0  0
   17.0480    3.6650   12.2130 C   0  0  3  0  0  0  0  0  0  0  0  0
   16.5120    4.9840   14.3710 C   0  0  0  0  0  0  0  0  0  0  0  0
   15.8180    5.6050   12.1290 C   0  0  0  0  0  0  0  0  0  0  0  0
   14.6120    6.1730   12.2850 C   0  0  0  0  0  0  0  0  0  0  0  0
   16.4570    4.8180   13.0000 C   0  0  0  0  0  0  0  0  0  0  0  0
   14.6900    6.5870   14.6460 C   0  0  0  0  0  0  0  0  0  0  0  0
   18.8280    2.8930    9.6630 C   0  0  0  0  0  0  0  0  0  0  0  0
   16.3060    5.5740   10.7410 C   0  0  3  0  0  0  0  0  0  0  0  0
   15.0590    5.9260    9.9160 C   0  0  0  0  0  0  0  0  0  0  0  0
   17.4160    4.2560   15.0930 O   0  0  0  0  0  0  0  0  0  0  0  0
   19.3220    2.4700   11.9980 C   0  0  0  0  0  0  0  0  0  0  0  0
   16.7270    2.6110    7.4210 C   0  0  0  0  0  0  0  0  0  0  0  0
   14.0310    6.4780   10.9310 C   0  0  0  0  0  0  0  0  0  0  0  0
   17.5340    3.4970    9.6450 C   0  0  0  0  0  0  0  0  0  0  0  0
   12.7680    5.6470   13.6060 N   0  0  0  0  0  0  0  0  0  0  0  0
   18.4210    3.3780   12.8070 C   0  0  0  0  0  0  0  0  0  0  0  0
   17.0930    4.2890   10.8160 C   0  0  3  0  0  0  0  0  0  0  0  0
   20.3570    4.4190   10.8170 C   0  0  0  0  0  0  0  0  0  0  0  0
   15.8430    5.9740   15.0610 C   0  0  0  0  0  0  0  0  0  0  0  0
   16.6740    3.3370    8.5810 C   0  0  0  0  0  0  0  0  0  0  0  0
   13.9990    6.2080   13.5140 C   0  0  0  0  0  0  0  0  0  0  0  0
  1  3  2  0  0  0  0
  1  4  1  0  0  0  0
  2 11  1  0  0  0  0
  2 15  1  0  0  0  0
  2 22  1  0  0  0  0
  3 16  1  0  0  0  0
  4 11  1  0  0  0  0
  5  9  1  0  0  0  0
  5 20  1  0  0  0  0
  5 21  1  0  0  0  0
  6  9  2  0  0  0  0
  6 14  1  0  0  0  0
  6 23  1  0  0  0  0
  7  8  2  0  0  0  0
  7  9  1  0  0  0  0
  7 12  1  0  0  0  0
  8 17  1  0  0  0  0
  8 25  1  0  0  0  0
 10 23  1  0  0  0  0
 10 25  2  0  0  0  0
 11 18  2  0  0  0  0
 12 13  1  0  0  0  0
 12 21  1  0  0  0  0
 13 17  1  0  0  0  0
 15 20  1  0  0  0  0
 16 24  2  0  0  0  0
 18 21  1  0  0  0  0
 18 24  1  0  0  0  0
 19 25  1  0  0  0  0
M  END
>  <Original_Directory>
5moh_A_rec_3pe1_3ng_lig_tt_min_0_pocket10

>  <Original_Filename>
5moh_A_rec_3pe1_3ng_lig_tt_min_0_pocket10_gen_sample_5.sdf

>  <Molecule_ID>
sample_5

>  <logS>
-2.74809

$$$$