/tmp/tmpmcon6utc
  MOE2022           3D

 24 28  0  0  1  0  0  0  0  0999 V2000
   -7.5830   18.1850  -26.5560 C   0  0  0  0  0  0  0  0  0  0  0  0
   -7.0690   17.1310  -25.7430 C   0  0  0  0  0  0  0  0  0  0  0  0
   -3.1310   18.4320  -23.4210 C   0  0  0  0  0  0  0  0  0  0  0  0
   -9.3170   16.7850  -27.7560 C   0  0  0  0  0  0  0  0  0  0  0  0
   -8.9870   15.4480  -27.4240 C   0  0  0  0  0  0  0  0  0  0  0  0
   -7.6030   20.7140  -26.9760 C   0  0  0  0  0  0  0  0  0  0  0  0
   -5.1100   19.1370  -24.7280 C   0  0  0  0  0  0  0  0  0  0  0  0
   -5.4160   21.5450  -27.6160 C   0  0  0  0  0  0  0  0  0  0  0  0
   -7.8190   14.9820  -26.7980 C   0  0  0  0  0  0  0  0  0  0  0  0
   -6.8140   21.6700  -27.6360 C   0  0  0  0  0  0  0  0  0  0  0  0
   -5.6490   19.7450  -25.9990 C   0  0  0  0  0  0  0  0  0  0  0  0
   -2.6750   21.1470  -24.4690 C   0  0  0  0  0  0  0  0  0  0  0  0
   -3.6130   18.7910  -24.8320 C   0  0  3  0  0  0  0  0  0  0  0  0
   -6.9830   19.5450  -26.4660 C   0  0  0  0  0  0  0  0  0  0  0  0
   -1.4100   20.9530  -23.6330 C   0  0  0  0  0  0  0  0  0  0  0  0
   -4.8110   20.5580  -26.8290 C   0  0  0  0  0  0  0  0  0  0  0  0
   -1.6340   18.5130  -23.1960 C   0  0  0  0  0  0  0  0  0  0  0  0
   -3.3130   20.3500  -26.7930 C   0  0  0  0  0  0  0  0  0  0  0  0
   -7.0380   15.7510  -25.9140 C   0  0  0  0  0  0  0  0  0  0  0  0
   -9.9140   14.4840  -27.6900 O   0  0  0  0  0  0  0  0  0  0  0  0
   -2.7680   19.9380  -25.4150 C   0  0  1  0  0  0  0  0  0  0  0  0
   -8.7040   17.9690  -27.3770 C   0  0  0  0  0  0  0  0  0  0  0  0
   -1.3230   19.4240  -25.4850 C   0  0  0  0  0  0  0  0  0  0  0  0
   -0.8770   19.5680  -24.0270 C   0  0  3  0  0  0  0  0  0  0  0  0
  1  2  1  0  0  0  0
  1 14  1  0  0  0  0
  1 22  2  0  0  0  0
  2 19  1  0  0  0  0
  3 13  1  0  0  0  0
  3 17  1  0  0  0  0
  4  5  2  0  0  0  0
  4 22  1  0  0  0  0
  5  9  1  0  0  0  0
  5 20  1  0  0  0  0
  6 10  1  0  0  0  0
  6 14  2  0  0  0  0
  7 11  1  0  0  0  0
  7 13  1  0  0  0  0
  8 10  2  0  0  0  0
  8 16  1  0  0  0  0
  9 19  2  0  0  0  0
 11 14  1  0  0  0  0
 11 16  2  0  0  0  0
 12 15  1  0  0  0  0
 12 21  1  0  0  0  0
 13 21  1  0  0  0  0
 15 24  1  0  0  0  0
 16 18  1  0  0  0  0
 17 24  1  0  0  0  0
 18 21  1  0  0  0  0
 21 23  1  0  0  0  0
 23 24  1  0  0  0  0
M  END
>  <Original_Directory>
3hld_A_rec_3hld_mja_lig_tt_min_0_pocket10

>  <Original_Filename>
3hld_A_rec_3hld_mja_lig_tt_min_0_pocket10_gen_sample_7.sdf

>  <Molecule_ID>
sample_7

>  <logS>
-7.6672602

$$$$