/tmp/tmp7glmluez
  MOE2022           3D

 13 14  0  0  1  0  0  0  0  0999 V2000
   -7.9820  -16.3770   -8.1670 C   0  0  0  0  0  0  0  0  0  0  0  0
  -12.4840  -16.0970  -10.8250 C   0  0  3  0  0  0  0  0  0  0  0  0
  -12.3070  -17.8090   -8.9100 C   0  0  0  0  0  0  0  0  0  0  0  0
   -7.8100  -16.8440   -9.4690 C   0  0  0  0  0  0  0  0  0  0  0  0
  -10.3550  -17.0140   -7.5860 C   0  0  0  0  0  0  0  0  0  0  0  0
   -9.0340  -16.6130   -7.3390 C   0  0  0  0  0  0  0  0  0  0  0  0
   -8.8760  -17.2030  -10.2860 C   0  0  0  0  0  0  0  0  0  0  0  0
  -13.1140  -16.7320   -9.6110 C   0  0  0  0  0  0  0  0  0  0  0  0
  -11.2560  -17.0340   -6.5650 O   0  0  0  0  0  0  0  0  0  0  0  0
  -12.7900  -14.7090  -10.7950 O   0  0  0  0  0  0  0  0  0  0  0  0
  -10.8620  -17.3450   -8.8350 C   0  0  0  0  0  0  0  0  0  0  0  0
  -11.0080  -16.2530  -11.1100 C   0  0  0  0  0  0  0  0  0  0  0  0
  -10.2190  -16.9480  -10.0130 C   0  0  0  0  0  0  0  0  0  0  0  0
  1  4  2  0  0  0  0
  1  6  1  0  0  0  0
  2  8  1  0  0  0  0
  2 10  1  0  0  0  0
  2 12  1  0  0  0  0
  3  8  1  0  0  0  0
  3 11  1  0  0  0  0
  4  7  1  0  0  0  0
  5  6  1  0  0  0  0
  5  9  1  0  0  0  0
  5 11  2  0  0  0  0
  7 13  2  0  0  0  0
 11 13  1  0  0  0  0
 12 13  1  0  0  0  0
M  END
>  <Original_Directory>
2nru_C_rec_5uiq_8bv_lig_tt_docked_2_pocket10

>  <Original_Filename>
2nru_C_rec_5uiq_8bv_lig_tt_docked_2_pocket10_gen_sample_1.sdf

>  <Molecule_ID>
sample_1

>  <logS>
-0.74392998

$$$$