/tmp/tmptly7txud
  MOE2022           3D

 19 21  0  0  1  0  0  0  0  0999 V2000
   -7.7970  -18.4480    4.8100 C   0  0  0  0  0  0  0  0  0  0  0  0
   -8.7730  -22.5090    0.7630 C   0  0  0  0  0  0  0  0  0  0  0  0
   -7.6790  -17.7110    5.9920 C   0  0  0  0  0  0  0  0  0  0  0  0
   -9.2690  -20.1790    3.7280 C   0  0  0  0  0  0  0  0  0  0  0  0
   -9.9500  -22.2780    2.7710 C   0  0  3  0  0  0  0  0  0  0  0  0
  -10.0630  -17.1870    5.8420 C   0  0  0  0  0  0  0  0  0  0  0  0
   -9.4280  -24.2410   -1.3860 O   0  0  0  0  0  0  0  0  0  0  0  0
  -11.2690  -24.9640   -0.3750 O   0  0  0  0  0  0  0  0  0  0  0  0
   -9.9210  -24.7340   -0.1870 C   0  0  0  0  0  0  0  0  0  0  0  0
  -10.3860  -21.2310    3.8020 C   0  0  0  0  0  0  0  0  0  0  0  0
   -9.3710  -21.4180    1.6450 C   0  0  3  0  0  0  0  0  0  0  0  0
  -10.1710  -18.0220    4.7220 C   0  0  0  0  0  0  0  0  0  0  0  0
   -9.7890  -23.6200    0.8600 C   0  0  0  0  0  0  0  0  0  0  0  0
   -8.8750  -17.2630    6.5990 C   0  0  0  0  0  0  0  0  0  0  0  0
  -10.7900  -23.2230    1.9170 C   0  0  0  0  0  0  0  0  0  0  0  0
   -9.2000  -25.8050    0.2120 O   0  0  0  0  0  0  0  0  0  0  0  0
   -8.9950  -17.3630    7.9550 O   0  0  0  0  0  0  0  0  0  0  0  0
   -8.5660  -20.3600    2.3830 C   0  0  0  0  0  0  0  0  0  0  0  0
   -9.0920  -18.8450    4.3980 C   0  0  0  0  0  0  0  0  0  0  0  0
  1  3  1  0  0  0  0
  1 19  2  0  0  0  0
  2 11  1  0  0  0  0
  2 13  1  0  0  0  0
  3 14  2  0  0  0  0
  4 10  1  0  0  0  0
  4 18  1  0  0  0  0
  4 19  1  0  0  0  0
  5 10  1  0  0  0  0
  5 11  1  0  0  0  0
  5 15  1  0  0  0  0
  6 12  2  0  0  0  0
  6 14  1  0  0  0  0
  7  9  1  0  0  0  0
  8  9  1  0  0  0  0
  9 13  1  0  0  0  0
  9 16  1  0  0  0  0
 11 18  1  0  0  0  0
 12 19  1  0  0  0  0
 13 15  1  0  0  0  0
 14 17  1  0  0  0  0
M  END
>  <Original_Directory>
5uwl_A_rec_4l19_1ua_lig_tt_min_0_pocket10

>  <Original_Filename>
5uwl_A_rec_4l19_1ua_lig_tt_min_0_pocket10_gen_sample_17.sdf

>  <Molecule_ID>
sample_17

>  <logS>
-3.3378201

$$$$