/tmp/tmpsgcmu3yy
  MOE2022           3D

 21 23  0  0  0  0  0  0  0  0999 V2000
   20.4650   -6.5100   16.7090 N   0  0  0  0  0  0  0  0  0  0  0  0
   21.3460   -7.1630   17.5110 C   0  0  0  0  0  0  0  0  0  0  0  0
   20.2340   -6.9400   15.4550 C   0  0  0  0  0  0  0  0  0  0  0  0
   24.0130   -6.2030   10.7830 C   0  0  0  0  0  0  0  0  0  0  0  0
   23.0860   -5.7120   11.7640 C   0  0  0  0  0  0  0  0  0  0  0  0
   22.9500   -8.8310   12.0210 C   0  0  0  0  0  0  0  0  0  0  0  0
   22.5730   -4.4060   11.6270 C   0  0  0  0  0  0  0  0  0  0  0  0
   21.7860   -6.4980   18.8090 C   0  0  0  0  0  0  0  0  0  0  0  0
   24.6500   -7.4140   10.9280 O   0  0  0  0  0  0  0  0  0  0  0  0
   20.9220   -8.2780   13.4210 C   0  0  0  0  0  0  0  0  0  0  0  0
   22.6620   -6.5440   12.8400 C   0  0  0  0  0  0  0  0  0  0  0  0
   22.6350   -7.1040   19.5150 O   0  0  0  0  0  0  0  0  0  0  0  0
   23.7000   -4.1710    9.4900 C   0  0  0  0  0  0  0  0  0  0  0  0
   24.0120   -8.6080   11.2520 C   0  0  0  0  0  0  0  0  0  0  0  0
   20.9840   -7.9800   14.9020 C   0  0  0  0  0  0  0  0  0  0  0  0
   21.8030   -8.7300   15.7470 C   0  0  0  0  0  0  0  0  0  0  0  0
   24.3790   -5.3780    9.7080 C   0  0  0  0  0  0  0  0  0  0  0  0
   22.0060   -8.3040   17.0620 C   0  0  0  0  0  0  0  0  0  0  0  0
   22.8830   -3.6480   10.4920 C   0  0  0  0  0  0  0  0  0  0  0  0
   22.1810   -7.8300   12.7300 C   0  0  0  0  0  0  0  0  0  0  0  0
   20.9430   -5.7660   19.3600 O   0  0  0  0  0  0  0  0  0  0  0  0
  1  2  1  0  0  0  0
  1  3  2  0  0  0  0
  2  8  1  0  0  0  0
  2 18  2  0  0  0  0
  3 15  1  0  0  0  0
  4  5  2  0  0  0  0
  4  9  1  0  0  0  0
  4 17  1  0  0  0  0
  5  7  1  0  0  0  0
  5 11  1  0  0  0  0
  6 14  2  0  0  0  0
  6 20  1  0  0  0  0
  7 19  2  0  0  0  0
  8 12  1  0  0  0  0
  8 21  2  0  0  0  0
  9 14  1  0  0  0  0
 10 15  1  0  0  0  0
 10 20  1  0  0  0  0
 11 20  2  0  0  0  0
 13 17  2  0  0  0  0
 13 19  1  0  0  0  0
 15 16  2  0  0  0  0
 16 18  1  0  0  0  0
M  END
>  <Original_Directory>
2g6p_A_rec_2nq7_hm5_lig_tt_min_0_pocket10

>  <Original_Filename>
2g6p_A_rec_2nq7_hm5_lig_tt_min_0_pocket10_gen_sample_10.sdf

>  <Molecule_ID>
sample_10

>  <logS>
-2.94766

$$$$