/tmp/tmpdq85v2aj
  MOE2022           3D

 21 24  0  0  1  0  0  0  0  0999 V2000
   24.6420   -5.4230    9.8600 C   0  0  0  0  0  0  0  0  0  0  0  0
   22.8520   -4.0610   10.7060 C   0  0  0  0  0  0  0  0  0  0  0  0
   23.9720   -4.2070    9.9050 C   0  0  0  0  0  0  0  0  0  0  0  0
   20.2210   -7.9070   15.6930 C   0  0  0  0  0  0  0  0  0  0  0  0
   22.4850   -5.0870   11.5670 C   0  0  0  0  0  0  0  0  0  0  0  0
   25.2290   -7.9030   13.5550 C   0  0  0  0  0  0  0  0  0  0  0  0
   20.5610   -7.0270   17.8920 C   0  0  0  0  0  0  0  0  0  0  0  0
   24.1970   -6.4900   10.6330 C   0  0  0  0  0  0  0  0  0  0  0  0
   23.1490   -9.1260   13.7890 N   0  0  0  0  0  0  0  0  0  0  0  0
   23.9580   -8.3380   12.8390 C   0  0  2  0  0  0  0  0  0  0  0  0
   22.2770   -8.2840   16.8250 N   0  0  0  0  0  0  0  0  0  0  0  0
   19.7390   -7.1990   16.7880 C   0  0  0  0  0  0  0  0  0  0  0  0
   24.2130   -8.9110   11.4380 C   0  0  0  0  0  0  0  0  0  0  0  0
   24.8100   -7.8590   10.4880 C   0  0  0  0  0  0  0  0  0  0  0  0
   21.5700   -8.2640   15.6790 C   0  0  0  0  0  0  0  0  0  0  0  0
   23.2620   -6.2370   11.6460 C   0  0  0  0  0  0  0  0  0  0  0  0
   21.6590   -7.8780   17.9600 C   0  0  0  0  0  0  0  0  0  0  0  0
   22.0210   -7.1920   13.5590 C   0  0  0  0  0  0  0  0  0  0  0  0
   22.2350   -8.2900   14.3900 C   0  0  3  0  0  0  0  0  0  0  0  0
   23.0330   -7.1930   12.6350 C   0  0  3  0  0  0  0  0  0  0  0  0
   22.1400   -8.2920   19.1530 N   0  0  0  0  0  0  0  0  0  0  0  0
  1  3  1  0  0  0  0
  1  8  2  0  0  0  0
  2  3  2  0  0  0  0
  2  5  1  0  0  0  0
  4 12  2  0  0  0  0
  4 15  1  0  0  0  0
  5 16  2  0  0  0  0
  6 10  1  0  0  0  0
  7 12  1  0  0  0  0
  7 17  2  0  0  0  0
  8 14  1  0  0  0  0
  8 16  1  0  0  0  0
  9 10  1  0  0  0  0
  9 19  1  0  0  0  0
 10 13  1  0  0  0  0
 10 20  1  0  0  0  0
 11 15  2  0  0  0  0
 11 17  1  0  0  0  0
 13 14  1  0  0  0  0
 15 19  1  0  0  0  0
 16 20  1  0  0  0  0
 17 21  1  0  0  0  0
 18 19  1  0  0  0  0
 18 20  1  0  0  0  0
M  END
>  <Original_Directory>
2g6p_A_rec_2nq7_hm5_lig_tt_min_0_pocket10

>  <Original_Filename>
2g6p_A_rec_2nq7_hm5_lig_tt_min_0_pocket10_gen_sample_12.sdf

>  <Molecule_ID>
sample_12

>  <logS>
-2.81969

$$$$