/tmp/tmpii6risp6
  MOE2022           3D

 15 16  0  0  1  0  0  0  0  0999 V2000
  -14.1780    3.8570   -0.7250 C   0  0  0  0  0  0  0  0  0  0  0  0
   -9.8380    2.9600    0.4450 C   0  0  0  0  0  0  0  0  0  0  0  0
  -13.9500    2.7060   -2.8180 O   0  0  0  0  0  0  0  0  0  0  0  0
   -7.3640    5.3790    1.6700 O   0  0  0  0  0  0  0  0  0  0  0  0
  -10.8950    4.6410    1.8490 C   0  0  0  0  0  0  0  0  0  0  0  0
  -10.9850    3.5540    0.9700 C   0  0  3  0  0  0  0  0  0  0  0  0
  -14.0040    2.6860   -1.4710 C   0  0  0  0  0  0  0  0  0  0  0  0
   -9.6800    6.6230    2.0990 O   0  0  0  0  0  0  0  0  0  0  0  0
  -13.4820    1.5630   -0.8280 C   0  0  0  0  0  0  0  0  0  0  0  0
  -12.5930    1.7660    0.2320 C   0  0  0  0  0  0  0  0  0  0  0  0
   -8.5510    3.4320    1.0620 C   0  0  0  0  0  0  0  0  0  0  0  0
  -12.3170    3.0890    0.5800 C   0  0  0  0  0  0  0  0  0  0  0  0
  -13.3670    4.0220    0.4120 C   0  0  0  0  0  0  0  0  0  0  0  0
   -8.5710    4.9100    1.1250 N   0  0  0  0  0  0  0  0  0  0  0  0
   -9.7180    5.4270    1.8310 C   0  0  0  0  0  0  0  0  0  0  0  0
  1  7  1  0  0  0  0
  1 13  2  0  0  0  0
  2  6  1  0  0  0  0
  2 11  1  0  0  0  0
  3  7  1  0  0  0  0
  4 14  1  0  0  0  0
  5  6  1  0  0  0  0
  5 15  1  0  0  0  0
  6 12  1  0  0  0  0
  7  9  2  0  0  0  0
  8 15  2  0  0  0  0
  9 10  1  0  0  0  0
 10 12  2  0  0  0  0
 11 14  1  0  0  0  0
 12 13  1  0  0  0  0
 14 15  1  0  0  0  0
M  END
>  <Original_Directory>
4y5g_A_rec_4y43_46t_lig_tt_docked_2_pocket10

>  <Original_Filename>
4y5g_A_rec_4y43_46t_lig_tt_docked_2_pocket10_gen_sample_5.sdf

>  <Molecule_ID>
sample_5

>  <logS>
-1.14101

$$$$