/tmp/tmpp8jeeuyf
  MOE2022           3D

 15 16  0  0  1  0  0  0  0  0999 V2000
   -8.5960    4.0230    1.3250 C   0  0  0  0  0  0  0  0  0  0  0  0
   -9.7200    2.6390   -0.8440 C   0  0  0  0  0  0  0  0  0  0  0  0
  -10.0070    3.8310    1.2440 C   0  0  0  0  0  0  0  0  0  0  0  0
  -12.6580    4.4920    0.3060 C   0  0  0  0  0  0  0  0  0  0  0  0
   -8.0420    4.6790    2.2200 O   0  0  0  0  0  0  0  0  0  0  0  0
  -14.5080    3.5960   -0.7890 C   0  0  3  0  0  0  0  0  0  0  0  0
  -15.6180    3.0510   -0.2120 N   0  0  0  0  0  0  0  0  0  0  0  0
  -13.9450    4.7020   -0.1790 C   0  0  0  0  0  0  0  0  0  0  0  0
  -13.7580    2.8660   -1.6550 N   0  0  0  0  0  0  0  0  0  0  0  0
  -11.9220    3.4450   -0.2500 C   0  0  0  0  0  0  0  0  0  0  0  0
  -12.5660    2.5600   -1.1050 C   0  0  0  0  0  0  0  0  0  0  0  0
   -7.8440    3.1820   -2.0570 O   0  0  0  0  0  0  0  0  0  0  0  0
   -8.3560    2.9830   -0.9130 C   0  0  0  0  0  0  0  0  0  0  0  0
  -10.5460    3.1480    0.1610 C   0  0  0  0  0  0  0  0  0  0  0  0
   -7.9320    3.9440    0.0680 N   0  0  0  0  0  0  0  0  0  0  0  0
  1  3  1  0  0  0  0
  1  5  2  0  0  0  0
  1 15  1  0  0  0  0
  2 13  1  0  0  0  0
  2 14  1  0  0  0  0
  3 14  1  0  0  0  0
  4  8  1  0  0  0  0
  4 10  2  0  0  0  0
  6  7  1  0  0  0  0
  6  8  1  0  0  0  0
  6  9  1  0  0  0  0
  9 11  1  0  0  0  0
 10 11  1  0  0  0  0
 10 14  1  0  0  0  0
 12 13  2  0  0  0  0
 13 15  1  0  0  0  0
M  END
>  <Original_Directory>
4y5g_A_rec_4y43_46t_lig_tt_docked_2_pocket10

>  <Original_Filename>
4y5g_A_rec_4y43_46t_lig_tt_docked_2_pocket10_gen_sample_19.sdf

>  <Molecule_ID>
sample_19

>  <logS>
0.29521999

$$$$