/tmp/tmpdptyybx7
  MOE2022           3D

 20 22  0  0  1  0  0  0  0  0999 V2000
   -4.7040   28.4450    7.6670 C   0  0  3  0  0  0  0  0  0  0  0  0
   -4.5520   27.6370    9.8820 C   0  0  3  0  0  0  0  0  0  0  0  0
   -3.3820   25.7350   13.8470 C   0  0  0  0  0  0  0  0  0  0  0  0
   -5.9560   27.4650    9.2650 C   0  0  3  0  0  0  0  0  0  0  0  0
   -5.6420   26.0430   12.3360 O   0  0  0  0  0  0  0  0  0  0  0  0
   -1.8990   24.3330   15.1020 C   0  0  0  0  0  0  0  0  0  0  0  0
    0.2970   24.2670   14.0670 O   0  0  0  0  0  0  0  0  0  0  0  0
   -2.6890   24.1490   12.0000 C   0  0  0  0  0  0  0  0  0  0  0  0
   -6.5170   28.8890    9.1770 C   0  0  0  0  0  0  0  0  0  0  0  0
   -3.4850   25.2180   12.4810 N   0  0  0  0  0  0  0  0  0  0  0  0
   -1.6150   23.6300   12.6370 C   0  0  0  0  0  0  0  0  0  0  0  0
   -4.8970   24.9790   10.6770 O   0  0  0  0  0  0  0  0  0  0  0  0
   -5.5990   27.2700    7.8450 N   0  0  0  0  0  0  0  0  0  0  0  0
   -1.0510   24.0180   13.8750 C   0  0  3  0  0  0  0  0  0  0  0  0
   -3.6580   28.1750    8.7560 C   0  0  0  0  0  0  0  0  0  0  0  0
   -4.0140   26.9960   11.0440 N   0  0  0  0  0  0  0  0  0  0  0  0
   -3.2310   24.7480   14.8680 O   0  0  0  0  0  0  0  0  0  0  0  0
   -4.5250   25.8120   11.6320 C   0  0  0  0  0  0  0  0  0  0  0  0
   -5.6240   29.5800    8.1510 C   0  0  0  0  0  0  0  0  0  0  0  0
   -1.5110   24.0710   16.2170 O   0  0  0  0  0  0  0  0  0  0  0  0
  1 13  1  0  0  0  0
  1 15  1  0  0  0  0
  1 19  1  0  0  0  0
  2  4  1  0  0  0  0
  2 15  1  0  0  0  0
  2 16  1  0  0  0  0
  3 10  1  0  0  0  0
  3 17  1  0  0  0  0
  4  9  1  0  0  0  0
  4 13  1  0  0  0  0
  5 18  1  0  0  0  0
  6 14  1  0  0  0  0
  6 17  1  0  0  0  0
  6 20  2  0  0  0  0
  7 14  1  0  0  0  0
  8 10  1  0  0  0  0
  8 11  2  0  0  0  0
  9 19  1  0  0  0  0
 10 18  1  0  0  0  0
 11 14  1  0  0  0  0
 12 18  1  0  0  0  0
 16 18  1  0  0  0  0
M  END
>  <Original_Directory>
1a82_A_rec_1dak_dpu_lig_tt_min_0_pocket10

>  <Original_Filename>
1a82_A_rec_1dak_dpu_lig_tt_min_0_pocket10_gen_sample_3.sdf

>  <Molecule_ID>
sample_3

>  <logS>
-0.020640001

$$$$