/tmp/tmp4pdkgm6v
  MOE2022           3D

  9  8  0  0  0  0  0  0  0  0999 V2000
   74.1490   43.4170   27.2910 P   0  0  0  0  0  0  0  0  0  0  0  0
   74.3580   43.2880   25.7910 O   0  0  0  0  0  0  0  0  0  0  0  0
   75.3630   43.8760   28.0280 O   0  0  0  0  0  0  0  0  0  0  0  0
   71.5400   41.1220   28.2220 O   0  0  0  0  0  0  0  0  0  0  0  0
   73.3310   39.6020   27.4240 O   0  0  0  0  0  0  0  0  0  0  0  0
   72.7260   40.9650   27.3150 P   0  0  0  0  0  0  0  0  0  0  0  0
   72.9630   44.2780   27.5550 O   0  0  0  0  0  0  0  0  0  0  0  0
   72.3970   41.3500   25.9150 O   0  0  0  0  0  0  0  0  0  0  0  0
   73.8210   41.9590   27.8520 O   0  0  0  0  0  0  0  0  0  0  0  0
  1  2  2  0  0  0  0
  1  3  1  0  0  0  0
  1  7  1  0  0  0  0
  1  9  1  0  0  0  0
  4  6  1  0  0  0  0
  5  6  1  0  0  0  0
  6  8  2  0  0  0  0
  6  9  1  0  0  0  0
M  END
>  <Original_Directory>
3mgi_A_rec_2pfq_ppv_lig_tt_docked_1_pocket10

>  <Original_Filename>
3mgi_A_rec_2pfq_ppv_lig_tt_docked_1_pocket10_gen_sample_13.sdf

>  <Molecule_ID>
sample_13

>  <logS>
1.38202

$$$$