/tmp/tmp2ayv2_or
  MOE2022           3D

  9  8  0  0  0  0  0  0  0  0999 V2000
   72.2990   37.0320   25.3330 O   0  0  0  0  0  0  0  0  0  0  0  0
   73.2070   37.8810   25.4920 C   0  0  0  0  0  0  0  0  0  0  0  0
   74.3180   37.6460   25.0210 O   0  0  0  0  0  0  0  0  0  0  0  0
   72.8440   40.7580   28.9990 O   0  0  0  0  0  0  0  0  0  0  0  0
   72.8640   39.2100   26.0590 C   0  0  0  0  0  0  0  0  0  0  0  0
   71.7560   41.6660   27.0940 C   0  0  0  0  0  0  0  0  0  0  0  0
   74.1050   42.2620   27.6110 C   0  0  0  0  0  0  0  0  0  0  0  0
   73.5810   39.9220   26.8860 C   0  0  0  0  0  0  0  0  0  0  0  0
   73.0690   41.1300   27.6470 C   0  0  0  0  0  0  0  0  0  0  0  0
  1  2  1  0  0  0  0
  2  3  2  0  0  0  0
  2  5  1  0  0  0  0
  4  9  1  0  0  0  0
  5  8  2  0  0  0  0
  6  9  1  0  0  0  0
  7  9  1  0  0  0  0
  8  9  1  0  0  0  0
M  END
>  <Original_Directory>
3mgi_A_rec_2pfq_ppv_lig_tt_docked_1_pocket10

>  <Original_Filename>
3mgi_A_rec_2pfq_ppv_lig_tt_docked_1_pocket10_gen_sample_9.sdf

>  <Molecule_ID>
sample_9

>  <logS>
-0.54408002

$$$$