/tmp/tmphqx9bq3a
  MOE2022           3D

 22 25  0  0  1  0  0  0  0  0999 V2000
   17.5340   11.6610   48.6330 C   0  0  0  0  0  0  0  0  0  0  0  0
   16.9100   10.5690   53.0980 C   0  0  0  0  0  0  0  0  0  0  0  0
   15.5320   12.2030   56.5360 O   0  0  0  0  0  0  0  0  0  0  0  0
   18.3340   12.6500   52.7850 C   0  0  0  0  0  0  0  0  0  0  0  0
   17.7860   11.3380   52.3340 C   0  0  3  0  0  0  0  0  0  0  0  0
   16.6980   10.6610   48.1490 C   0  0  0  0  0  0  0  0  0  0  0  0
   16.2880   14.3590   58.6120 O   0  0  0  0  0  0  0  0  0  0  0  0
   16.4100    9.4780   48.7140 C   0  0  0  0  0  0  0  0  0  0  0  0
   17.5440   12.6570   59.1120 O   0  0  0  0  0  0  0  0  0  0  0  0
   16.4390    9.0300   49.9670 N   0  0  0  0  0  0  0  0  0  0  0  0
   19.0620   13.6410   54.9900 C   0  0  0  0  0  0  0  0  0  0  0  0
   18.0710   11.6500   49.9000 C   0  0  0  0  0  0  0  0  0  0  0  0
   18.3270   12.6980   54.2830 C   0  0  0  0  0  0  0  0  0  0  0  0
   17.5690   13.3830   56.8580 C   0  0  0  0  0  0  0  0  0  0  0  0
   17.5540   10.9580   51.0050 C   0  0  3  0  0  0  0  0  0  0  0  0
   17.1700   13.5310   58.2850 C   0  0  0  0  0  0  0  0  0  0  0  0
   16.4560    9.5290   52.3290 N   0  0  0  0  0  0  0  0  0  0  0  0
   16.7760   12.5160   56.0930 C   0  0  0  0  0  0  0  0  0  0  0  0
   16.8870    9.7220   51.0500 C   0  0  0  0  0  0  0  0  0  0  0  0
   16.9950   10.6970   54.4570 N   0  0  0  0  0  0  0  0  0  0  0  0
   18.6970   13.9700   56.2930 C   0  0  0  0  0  0  0  0  0  0  0  0
   17.3030   11.9840   54.9190 C   0  0  0  0  0  0  0  0  0  0  0  0
  1  6  2  0  0  0  0
  1 12  1  0  0  0  0
  2  5  1  0  0  0  0
  2 17  2  0  0  0  0
  2 20  1  0  0  0  0
  3 18  1  0  0  0  0
  4  5  1  0  0  0  0
  4 13  1  0  0  0  0
  5 15  1  0  0  0  0
  6  8  1  0  0  0  0
  7 16  2  0  0  0  0
  8 10  1  0  0  0  0
  9 16  1  0  0  0  0
 10 19  2  0  0  0  0
 11 13  1  0  0  0  0
 11 21  2  0  0  0  0
 12 15  1  0  0  0  0
 13 22  2  0  0  0  0
 14 16  1  0  0  0  0
 14 18  2  0  0  0  0
 14 21  1  0  0  0  0
 15 19  1  0  0  0  0
 17 19  1  0  0  0  0
 18 22  1  0  0  0  0
 20 22  1  0  0  0  0
M  END
>  <Original_Directory>
3ms7_A_rec_2gj4_2th_lig_tt_docked_1_pocket10

>  <Original_Filename>
3ms7_A_rec_2gj4_2th_lig_tt_docked_1_pocket10_gen_sample_5.sdf

>  <Molecule_ID>
sample_5

>  <logS>
-2.1535201

$$$$