/tmp/tmp3_jh5b4v
  MOE2022           3D

 22 23  0  0  1  0  0  0  0  0999 V2000
   16.2250   16.0100   54.5610 C   0  0  0  0  0  0  0  0  0  0  0  0
   17.5430   11.3780   51.6350 C   0  0  0  0  0  0  0  0  0  0  0  0
   17.1500    9.1010   48.7800 O   0  0  0  0  0  0  0  0  0  0  0  0
   18.0580   12.2900   53.9240 C   0  0  0  0  0  0  0  0  0  0  0  0
   17.5880   13.6470   54.2300 N   0  0  0  0  0  0  0  0  0  0  0  0
   17.1470   10.2860   50.8390 C   0  0  0  0  0  0  0  0  0  0  0  0
   17.8150   14.6790   53.4010 C   0  0  0  0  0  0  0  0  0  0  0  0
   12.5760    9.5840   53.7860 O   0  0  0  0  0  0  0  0  0  0  0  0
   15.2520   16.9350   54.4530 O   0  0  0  0  0  0  0  0  0  0  0  0
   16.4400   10.3440   53.5190 C   0  0  0  0  0  0  0  0  0  0  0  0
   15.9450    9.3720   52.6170 C   0  0  3  0  0  0  0  0  0  0  0  0
   17.3400   11.3210   53.0230 C   0  0  0  0  0  0  0  0  0  0  0  0
   17.0430   13.9490   55.4370 C   0  0  0  0  0  0  0  0  0  0  0  0
   16.7280    9.1110   51.4910 C   0  0  0  0  0  0  0  0  0  0  0  0
   14.5830    8.7130   52.6710 C   0  0  0  0  0  0  0  0  0  0  0  0
   16.2290   15.0730   55.6010 C   0  0  0  0  0  0  0  0  0  0  0  0
   17.0320   10.2950   49.3270 C   0  0  0  0  0  0  0  0  0  0  0  0
   15.7780   10.7740   48.9370 N   0  0  0  0  0  0  0  0  0  0  0  0
   11.9860    9.9390   55.0390 C   0  0  0  0  0  0  0  0  0  0  0  0
   17.2340   15.9240   53.5950 C   0  0  0  0  0  0  0  0  0  0  0  0
   13.8400    8.9370   53.9640 C   0  0  0  0  0  0  0  0  0  0  0  0
   17.9190   11.1760   48.7500 N   0  0  0  0  0  0  0  0  0  0  0  0
  1  9  1  0  0  0  0
  1 16  1  0  0  0  0
  1 20  2  0  0  0  0
  2  6  2  0  0  0  0
  2 12  1  0  0  0  0
  3 17  1  0  0  0  0
  4  5  1  0  0  0  0
  4 12  1  0  0  0  0
  5  7  1  0  0  0  0
  5 13  1  0  0  0  0
  6 14  1  0  0  0  0
  6 17  1  0  0  0  0
  7 20  1  0  0  0  0
  8 19  1  0  0  0  0
  8 21  1  0  0  0  0
 10 11  1  0  0  0  0
 10 12  2  0  0  0  0
 11 14  1  0  0  0  0
 11 15  1  0  0  0  0
 13 16  2  0  0  0  0
 15 21  1  0  0  0  0
 17 18  1  0  0  0  0
 17 22  1  0  0  0  0
M  END
>  <Original_Directory>
3ms7_A_rec_2gj4_2th_lig_tt_docked_1_pocket10

>  <Original_Filename>
3ms7_A_rec_2gj4_2th_lig_tt_docked_1_pocket10_gen_sample_19.sdf

>  <Molecule_ID>
sample_19

>  <logS>
-0.54430997

$$$$