/tmp/tmpofdif03z
  MOE2022           3D

 16 17  0  0  1  0  0  0  0  0999 V2000
   -3.4700    0.4080   10.3550 C   0  0  3  0  0  0  0  0  0  0  0  0
   -5.5870   -0.2990   11.1790 O   0  0  0  0  0  0  0  0  0  0  0  0
   -2.1160    3.4130   10.2980 C   0  0  0  0  0  0  0  0  0  0  0  0
    1.8270    4.7180   10.4780 O   0  0  0  0  0  0  0  0  0  0  0  0
    0.2030    2.9360   10.1830 O   0  0  0  0  0  0  0  0  0  0  0  0
   -4.4640   -0.6920   10.7540 C   0  0  0  0  0  0  0  0  0  0  0  0
   -2.0220    0.0390   10.0870 C   0  0  0  0  0  0  0  0  0  0  0  0
   -2.0610    1.4350   12.0500 C   0  0  0  0  0  0  0  0  0  0  0  0
   -0.0390    5.0830    8.8660 O   0  0  0  0  0  0  0  0  0  0  0  0
   -3.4930    2.8120   10.5770 C   0  0  0  0  0  0  0  0  0  0  0  0
    0.9550    4.1110    9.4280 P   0  0  0  0  0  0  0  0  0  0  0  0
   -3.4480    1.5270   11.4240 C   0  0  3  0  0  0  0  0  0  0  0  0
   -1.0730    2.3500    9.9320 C   0  0  3  0  0  0  0  0  0  0  0  0
   -4.1660   -1.8840   10.5890 O   0  0  0  0  0  0  0  0  0  0  0  0
   -1.1840    1.0960   10.8330 C   0  0  3  0  0  0  0  0  0  0  0  0
    1.6990    3.4880    8.2930 O   0  0  0  0  0  0  0  0  0  0  0  0
  1  6  1  0  0  0  0
  1  7  1  0  0  0  0
  1 12  1  0  0  0  0
  2  6  1  0  0  0  0
  3 10  1  0  0  0  0
  3 13  1  0  0  0  0
  4 11  1  0  0  0  0
  5 11  1  0  0  0  0
  5 13  1  0  0  0  0
  6 14  2  0  0  0  0
  7 15  1  0  0  0  0
  8 12  1  0  0  0  0
  8 15  1  0  0  0  0
  9 11  1  0  0  0  0
 10 12  1  0  0  0  0
 11 16  2  0  0  0  0
 13 15  1  0  0  0  0
M  END
>  <Original_Directory>
4lap_A_rec_3pb5_f63_lig_tt_min_0_pocket10

>  <Original_Filename>
4lap_A_rec_3pb5_f63_lig_tt_min_0_pocket10_gen_sample_3.sdf

>  <Molecule_ID>
sample_3

>  <logS>
-0.18532

$$$$