/tmp/tmpg_exep03
  MOE2022           3D

 35 40  0  0  1  0  0  0  0  0999 V2000
   13.4760   46.3910   52.8740 C   0  0  0  0  0  0  0  0  0  0  0  0
    9.9150   47.5200   44.1250 O   0  0  0  0  0  0  0  0  0  0  0  0
   10.0880   45.3650   43.1430 O   0  0  0  0  0  0  0  0  0  0  0  0
   13.1540   46.4460   51.5490 C   0  0  0  0  0  0  0  0  0  0  0  0
    6.3540   44.5280   51.4600 C   0  0  3  0  0  0  0  0  0  0  0  0
   11.5860   46.6250   49.5590 C   0  0  0  0  0  0  0  0  0  0  0  0
   11.9930   46.2440   44.3610 O   0  0  0  0  0  0  0  0  0  0  0  0
   10.5280   46.1990   44.2380 S   0  0  0  0  0  0  0  0  0  0  0  0
   12.9200   47.4060   55.1150 C   0  0  0  0  0  0  0  0  0  0  0  0
    9.3460   44.1990   45.6110 C   0  0  0  0  0  0  0  0  0  0  0  0
   10.9010   45.0300   54.9980 C   0  0  0  0  0  0  0  0  0  0  0  0
    5.8990   43.0260   53.7580 C   0  0  0  0  0  0  0  0  0  0  0  0
   10.3080   46.1120   49.3730 C   0  0  3  0  0  0  0  0  0  0  0  0
    7.0570   42.8780   53.0600 N   0  0  0  0  0  0  0  0  0  0  0  0
    8.3240   45.2490   48.4130 C   0  0  0  0  0  0  0  0  0  0  0  0
    8.8060   44.8370   50.7160 C   0  0  0  0  0  0  0  0  0  0  0  0
    9.5530   45.9330   48.2130 N   0  0  0  0  0  0  0  0  0  0  0  0
   11.8680   46.5000   50.9530 C   0  0  0  0  0  0  0  0  0  0  0  0
    7.6540   44.6200   47.3590 C   0  0  0  0  0  0  0  0  0  0  0  0
    6.4960   44.9530   50.1630 N   0  0  0  0  0  0  0  0  0  0  0  0
    5.1630   44.9100   52.3260 C   0  0  2  0  0  0  0  0  0  0  0  0
    5.4290   46.1120   53.0230 O   0  0  0  0  0  0  0  0  0  0  0  0
    8.1680   43.9320   46.2620 C   0  0  0  0  0  0  0  0  0  0  0  0
   12.5520   46.5600   53.9170 C   0  0  3  0  0  0  0  0  0  0  0  0
    9.9580   45.4860   45.7520 C   0  0  0  0  0  0  0  0  0  0  0  0
    9.8720   45.6600   50.5920 N   0  0  0  0  0  0  0  0  0  0  0  0
    4.8870   43.8510   53.3660 C   0  0  0  0  0  0  0  0  0  0  0  0
    8.6720   43.8980   51.6850 N   0  0  0  0  0  0  0  0  0  0  0  0
    7.3720   43.7620   52.0720 C   0  0  0  0  0  0  0  0  0  0  0  0
    7.7960   45.0320   49.7330 C   0  0  0  0  0  0  0  0  0  0  0  0
   10.6840   46.1030   51.5710 C   0  0  0  0  0  0  0  0  0  0  0  0
   11.2870   45.9700   53.8880 C   0  0  0  0  0  0  0  0  0  0  0  0
   10.0820   46.1910   46.9480 C   0  0  0  0  0  0  0  0  0  0  0  0
    3.8860   45.0950   51.5170 C   0  0  0  0  0  0  0  0  0  0  0  0
   10.4010   46.1820   52.9080 N   0  0  0  0  0  0  0  0  0  0  0  0
  1  4  2  0  0  0  0
  1 24  1  0  0  0  0
  2  8  1  0  0  0  0
  3  8  1  0  0  0  0
  4 18  1  0  0  0  0
  5 20  1  0  0  0  0
  5 21  1  0  0  0  0
  5 29  1  0  0  0  0
  6 13  1  0  0  0  0
  6 18  1  0  0  0  0
  7  8  1  0  0  0  0
  8 25  1  0  0  0  0
  9 24  1  0  0  0  0
 10 23  2  0  0  0  0
 10 25  1  0  0  0  0
 11 32  1  0  0  0  0
 12 14  1  0  0  0  0
 12 27  1  0  0  0  0
 13 17  1  0  0  0  0
 13 26  1  0  0  0  0
 14 29  2  0  0  0  0
 15 17  1  0  0  0  0
 15 19  2  0  0  0  0
 15 30  1  0  0  0  0
 16 26  1  0  0  0  0
 16 28  1  0  0  0  0
 16 30  2  0  0  0  0
 17 33  1  0  0  0  0
 18 31  2  0  0  0  0
 19 23  1  0  0  0  0
 20 30  1  0  0  0  0
 21 22  1  0  0  0  0
 21 27  1  0  0  0  0
 21 34  1  0  0  0  0
 24 32  1  0  0  0  0
 25 33  2  0  0  0  0
 26 31  1  0  0  0  0
 28 29  1  0  0  0  0
 31 35  1  0  0  0  0
 32 35  2  0  0  0  0
M  END
>  <Original_Directory>
4mk7_A_rec_3cde_n3h_lig_tt_min_0_pocket10

>  <Original_Filename>
4mk7_A_rec_3cde_n3h_lig_tt_min_0_pocket10_gen_sample_13.sdf

>  <Molecule_ID>
sample_13

>  <logS>
-4.19138

$$$$