/tmp/tmpyzeqgc6o
  MOE2022           3D

 25 28  0  0  1  0  0  0  0  0999 V2000
   -4.7590    2.9260   15.0320 C   0  0  0  0  0  0  0  0  0  0  0  0
   -5.5490    3.0580   12.5700 C   0  0  0  0  0  0  0  0  0  0  0  0
   -5.7820    0.8080   16.5890 C   0  0  0  0  0  0  0  0  0  0  0  0
   -5.2100    1.5100   15.3410 C   0  0  0  0  0  0  0  0  0  0  0  0
   -3.6110    4.9630   15.7040 C   0  0  0  0  0  0  0  0  0  0  0  0
   -5.4050   -0.5500   16.5180 O   0  0  0  0  0  0  0  0  0  0  0  0
   -7.6550    8.0240   13.1970 C   0  0  3  0  0  0  0  0  0  0  0  0
   -6.1440    2.5410   19.7960 O   0  0  0  0  0  0  0  0  0  0  0  0
   -8.0760    8.2630   11.7520 C   0  0  0  0  0  0  0  0  0  0  0  0
   -7.4150    9.2730   14.0500 C   0  0  0  0  0  0  0  0  0  0  0  0
   -6.6400    5.7810   13.5220 C   0  0  0  0  0  0  0  0  0  0  0  0
   -4.3740    7.2180   14.8680 C   0  0  0  0  0  0  0  0  0  0  0  0
   -5.8640    7.3060   11.6820 C   0  0  0  0  0  0  0  0  0  0  0  0
   -6.3560    7.2260   13.1340 C   0  0  1  0  0  0  0  0  0  0  0  0
   -6.1830    8.9630   14.8910 C   0  0  0  0  0  0  0  0  0  0  0  0
   -5.3150    3.6590   13.9440 C   0  0  0  0  0  0  0  0  0  0  0  0
   -6.0660    2.4750   18.5670 C   0  0  0  0  0  0  0  0  0  0  0  0
   -5.3180    1.3330   17.9480 C   0  0  0  0  0  0  0  0  0  0  0  0
   -7.1950    0.8310   16.5330 O   0  0  0  0  0  0  0  0  0  0  0  0
   -5.3780    7.9870   14.0250 C   0  0  3  0  0  0  0  0  0  0  0  0
   -5.4890    5.0490   14.1460 C   0  0  0  0  0  0  0  0  0  0  0  0
   -4.5040    5.7160   14.9180 C   0  0  0  0  0  0  0  0  0  0  0  0
   -3.7590    3.5650   15.7940 C   0  0  0  0  0  0  0  0  0  0  0  0
   -6.6790    3.2730   17.8060 O   0  0  0  0  0  0  0  0  0  0  0  0
   -7.1480    7.4460   10.8620 C   0  0  0  0  0  0  0  0  0  0  0  0
  1  4  1  0  0  0  0
  1 16  2  0  0  0  0
  1 23  1  0  0  0  0
  2 16  1  0  0  0  0
  3  4  1  0  0  0  0
  3  6  1  0  0  0  0
  3 18  1  0  0  0  0
  3 19  1  0  0  0  0
  5 22  1  0  0  0  0
  5 23  2  0  0  0  0
  7  9  1  0  0  0  0
  7 10  1  0  0  0  0
  7 14  1  0  0  0  0
  8 17  1  0  0  0  0
  9 25  1  0  0  0  0
 10 15  1  0  0  0  0
 11 14  1  0  0  0  0
 11 21  1  0  0  0  0
 12 20  1  0  0  0  0
 12 22  1  0  0  0  0
 13 14  1  0  0  0  0
 13 25  1  0  0  0  0
 14 20  1  0  0  0  0
 15 20  1  0  0  0  0
 16 21  1  0  0  0  0
 17 18  1  0  0  0  0
 17 24  2  0  0  0  0
 21 22  2  0  0  0  0
M  END
>  <Original_Directory>
5gmn_A_rec_1bnm_al8_lig_tt_docked_8_pocket10

>  <Original_Filename>
5gmn_A_rec_1bnm_al8_lig_tt_docked_8_pocket10_gen_sample_13.sdf

>  <Molecule_ID>
sample_13

>  <logS>
-6.1859498

$$$$