/tmp/tmpfph8b6t1
  MOE2022           3D

 15 16  0  0  1  0  0  0  0  0999 V2000
    0.1930   25.9760   29.2090 C   0  0  0  0  0  0  0  0  0  0  0  0
    0.8970   27.4640   27.4000 C   0  0  0  0  0  0  0  0  0  0  0  0
   -2.5310   27.7520   26.3450 C   0  0  0  0  0  0  0  0  0  0  0  0
   -4.0240   25.7230   28.3940 C   0  0  0  0  0  0  0  0  0  0  0  0
    2.0860   24.1720   28.2170 O   0  0  0  0  0  0  0  0  0  0  0  0
   -3.4360   27.0050   29.0020 C   0  0  3  0  0  0  0  0  0  0  0  0
   -0.2730   28.2080   27.2730 C   0  0  0  0  0  0  0  0  0  0  0  0
   -1.5330   27.6790   27.4900 C   0  0  0  0  0  0  0  0  0  0  0  0
   -1.9390   27.0370   28.6920 C   0  0  0  0  0  0  0  0  0  0  0  0
    1.8470   25.0720   26.2080 O   0  0  0  0  0  0  0  0  0  0  0  0
    0.9000   26.2120   28.0300 C   0  0  0  0  0  0  0  0  0  0  0  0
   -3.8780   28.2610   26.8630 C   0  0  0  0  0  0  0  0  0  0  0  0
    1.6980   25.1010   27.4550 C   0  0  0  0  0  0  0  0  0  0  0  0
   -1.0500   26.4660   29.5640 C   0  0  0  0  0  0  0  0  0  0  0  0
   -4.1140   28.2040   28.3470 C   0  0  0  0  0  0  0  0  0  0  0  0
  1 11  2  0  0  0  0
  1 14  1  0  0  0  0
  2  7  2  0  0  0  0
  2 11  1  0  0  0  0
  3  8  1  0  0  0  0
  3 12  1  0  0  0  0
  4  6  1  0  0  0  0
  5 13  1  0  0  0  0
  6  9  1  0  0  0  0
  6 15  1  0  0  0  0
  7  8  1  0  0  0  0
  8  9  2  0  0  0  0
  9 14  1  0  0  0  0
 10 13  2  0  0  0  0
 11 13  1  0  0  0  0
 12 15  1  0  0  0  0
M  END
>  <Original_Directory>
5hwx_A_rec_5hwx_mys_lig_tt_docked_6_pocket10

>  <Original_Filename>
5hwx_A_rec_5hwx_mys_lig_tt_docked_6_pocket10_gen_sample_19.sdf

>  <Molecule_ID>
sample_19

>  <logS>
-3.5620601

$$$$