/tmp/tmp5pxfnvur
  MOE2022           3D

 12 13  0  0  1  0  0  0  0  0999 V2000
    4.9760  -11.3020  -12.2610 C   0  0  0  0  0  0  0  0  0  0  0  0
    6.1000  -13.5640  -10.3200 C   0  0  0  0  0  0  0  0  0  0  0  0
    5.0720  -13.5930  -13.0010 C   0  0  3  0  0  0  0  0  0  0  0  0
    6.2930  -14.1950  -12.6710 C   0  0  0  0  0  0  0  0  0  0  0  0
    2.8880  -12.6770  -12.2330 C   0  0  0  0  0  0  0  0  0  0  0  0
    4.5500  -13.8630  -14.2210 O   0  0  0  0  0  0  0  0  0  0  0  0
    2.3930  -13.0950  -13.4420 C   0  0  0  0  0  0  0  0  0  0  0  0
    6.8200  -14.1560  -11.4360 N   0  0  0  0  0  0  0  0  0  0  0  0
    4.6700  -13.1630  -10.5940 C   0  0  0  0  0  0  0  0  0  0  0  0
    4.3960  -12.6770  -12.0230 C   0  0  2  0  0  0  0  0  0  0  0  0
    3.2570  -13.5460  -14.4670 C   0  0  0  0  0  0  0  0  0  0  0  0
    2.7610  -13.8310  -15.8690 C   0  0  0  0  0  0  0  0  0  0  0  0
  1 10  1  0  0  0  0
  2  8  1  0  0  0  0
  2  9  1  0  0  0  0
  3  4  1  0  0  0  0
  3  6  1  0  0  0  0
  3 10  1  0  0  0  0
  4  8  2  0  0  0  0
  5  7  1  0  0  0  0
  5 10  1  0  0  0  0
  6 11  1  0  0  0  0
  7 11  2  0  0  0  0
  9 10  1  0  0  0  0
 11 12  1  0  0  0  0
M  END
>  <Original_Directory>
5ewd_A_rec_5ewd_5sh_lig_tt_docked_7_pocket10

>  <Original_Filename>
5ewd_A_rec_5ewd_5sh_lig_tt_docked_7_pocket10_gen_sample_19.sdf

>  <Molecule_ID>
sample_19

>  <logS>
-0.97692001

$$$$