/tmp/tmp99nf_71j
  MOE2022           3D

 33 38  0  0  1  0  0  0  0  0999 V2000
  -24.1070   23.1100  -22.3100 C   0  0  0  0  0  0  0  0  0  0  0  0
  -25.9460   21.9040  -18.2320 C   0  0  0  0  0  0  0  0  0  0  0  0
  -30.1480   22.3740  -15.7630 O   0  0  0  0  0  0  0  0  0  0  0  0
  -23.0690   22.0280  -22.0640 C   0  0  0  0  0  0  0  0  0  0  0  0
  -24.9460   23.5280  -21.1190 C   0  0  0  0  0  0  0  0  0  0  0  0
  -28.1940   22.4770  -17.1850 C   0  0  1  0  0  0  0  0  0  0  0  0
  -29.4680   20.6380  -20.2710 C   0  0  0  0  0  0  0  0  0  0  0  0
  -22.9340   21.9950  -18.1920 C   0  0  0  0  0  0  0  0  0  0  0  0
  -22.3150   22.2060  -20.7430 C   0  0  1  0  0  0  0  0  0  0  0  0
  -26.7070   24.5740  -17.1040 C   0  0  3  0  0  0  0  0  0  0  0  0
  -29.2910   20.3190  -16.6060 C   0  0  0  0  0  0  0  0  0  0  0  0
  -29.3270   20.1000  -17.9580 C   0  0  0  0  0  0  0  0  0  0  0  0
  -29.6430   18.1740  -16.9970 N   0  0  0  0  0  0  0  0  0  0  0  0
  -29.5620   19.2760  -20.5630 C   0  0  0  0  0  0  0  0  0  0  0  0
  -28.9550   21.6900  -16.0950 C   0  0  3  0  0  0  0  0  0  0  0  0
  -26.8900   21.7490  -17.2750 C   0  0  0  0  0  0  0  0  0  0  0  0
  -26.4180   25.8490  -16.3400 C   0  0  0  0  0  0  0  0  0  0  0  0
  -29.6560   18.3340  -19.5230 C   0  0  0  0  0  0  0  0  0  0  0  0
  -29.9370   17.0370  -19.8040 O   0  0  0  0  0  0  0  0  0  0  0  0
  -28.9450   22.4620  -18.5360 C   0  0  0  0  0  0  0  0  0  0  0  0
  -21.4040   20.9920  -20.5320 C   0  0  0  0  0  0  0  0  0  0  0  0
  -20.7550   21.0720  -19.1470 C   0  0  0  0  0  0  0  0  0  0  0  0
  -25.9610   24.3170  -18.2260 C   0  0  0  0  0  0  0  0  0  0  0  0
  -24.5430   23.0370  -19.8000 N   0  0  0  0  0  0  0  0  0  0  0  0
  -29.4700   19.1040  -16.0080 C   0  0  0  0  0  0  0  0  0  0  0  0
  -21.7640   21.0480  -18.0300 C   0  0  0  0  0  0  0  0  0  0  0  0
  -21.4630   23.4770  -20.8100 C   0  0  0  0  0  0  0  0  0  0  0  0
  -29.2600   21.0500  -18.9610 C   0  0  3  0  0  0  0  0  0  0  0  0
  -25.4690   23.1150  -18.7620 C   0  0  0  0  0  0  0  0  0  0  0  0
  -23.3170   22.3220  -19.6130 C   0  0  3  0  0  0  0  0  0  0  0  0
  -28.1960   24.0780  -15.3320 O   0  0  0  0  0  0  0  0  0  0  0  0
  -28.0020   23.9180  -16.7160 C   0  0  3  0  0  0  0  0  0  0  0  0
  -29.5190   18.7690  -18.2110 C   0  0  0  0  0  0  0  0  0  0  0  0
  1  4  1  0  0  0  0
  1  5  2  0  0  0  0
  2 16  1  0  0  0  0
  2 29  2  0  0  0  0
  3 15  1  0  0  0  0
  4  9  1  0  0  0  0
  5 24  1  0  0  0  0
  6 15  1  0  0  0  0
  6 16  1  0  0  0  0
  6 20  1  0  0  0  0
  6 32  1  0  0  0  0
  7 14  2  0  0  0  0
  7 28  1  0  0  0  0
  8 26  1  0  0  0  0
  8 30  1  0  0  0  0
  9 21  1  0  0  0  0
  9 27  1  0  0  0  0
  9 30  1  0  0  0  0
 10 17  1  0  0  0  0
 10 23  1  0  0  0  0
 10 32  1  0  0  0  0
 11 12  2  0  0  0  0
 11 15  1  0  0  0  0
 11 25  1  0  0  0  0
 12 28  1  0  0  0  0
 12 33  1  0  0  0  0
 13 25  2  0  0  0  0
 13 33  1  0  0  0  0
 14 18  1  0  0  0  0
 18 19  1  0  0  0  0
 18 33  2  0  0  0  0
 20 28  1  0  0  0  0
 21 22  1  0  0  0  0
 22 26  1  0  0  0  0
 23 29  1  0  0  0  0
 24 29  1  0  0  0  0
 24 30  1  0  0  0  0
 31 32  1  0  0  0  0
M  END
>  <Original_Directory>
4l8z_A_rec_5lo6_70o_lig_tt_min_0_pocket10

>  <Original_Filename>
4l8z_A_rec_5lo6_70o_lig_tt_min_0_pocket10_gen_sample_17.sdf

>  <Molecule_ID>
sample_17

>  <logS>
-3.5809901

$$$$