/tmp/tmpqy1vujjz
  MOE2022           3D

 30 34  0  0  1  0  0  0  0  0999 V2000
   12.7420   12.6920   13.9590 C   0  0  0  0  0  0  0  0  0  0  0  0
   11.2200   12.6430   16.3710 C   0  0  0  0  0  0  0  0  0  0  0  0
   11.3310   12.6690   13.8880 C   0  0  0  0  0  0  0  0  0  0  0  0
    8.4240   13.7680   14.3360 C   0  0  0  0  0  0  0  0  0  0  0  0
    9.1840   12.5620   20.6350 C   0  0  0  0  0  0  0  0  0  0  0  0
    4.4900    7.5790   16.4690 O   0  0  0  0  0  0  0  0  0  0  0  0
    6.4120   12.8510   13.1390 C   0  0  0  0  0  0  0  0  0  0  0  0
   10.4990   14.1510   18.2320 C   0  0  0  0  0  0  0  0  0  0  0  0
    6.4080   11.5650   13.6980 C   0  0  0  0  0  0  0  0  0  0  0  0
    9.0510   12.6570   14.9250 C   0  0  3  0  0  0  0  0  0  0  0  0
    8.8000   12.0470   21.8340 O   0  0  0  0  0  0  0  0  0  0  0  0
   12.6310   12.4770   16.3850 C   0  0  0  0  0  0  0  0  0  0  0  0
   10.5410   12.6240   15.0730 C   0  0  0  0  0  0  0  0  0  0  0  0
    6.6920    7.8060   16.4330 F   0  0  0  0  0  0  0  0  0  0  0  0
    7.2810   13.8520   13.5660 C   0  0  0  0  0  0  0  0  0  0  0  0
    5.3920    9.3500   15.1390 C   0  0  3  0  0  0  0  0  0  0  0  0
    6.1830    7.9230   13.3000 C   0  0  0  0  0  0  0  0  0  0  0  0
    9.6310   13.9060   20.6040 C   0  0  0  0  0  0  0  0  0  0  0  0
    5.7620    9.3000   13.6900 C   0  0  3  0  0  0  0  0  0  0  0  0
    6.0960   10.4460   15.9360 C   0  0  0  0  0  0  0  0  0  0  0  0
    5.8150    7.0110   14.4530 C   0  0  0  0  0  0  0  0  0  0  0  0
   10.2370   14.5630   19.5400 C   0  0  0  0  0  0  0  0  0  0  0  0
    9.8110   11.7940   18.3070 C   0  0  0  0  0  0  0  0  0  0  0  0
   13.3840   12.5970   15.1960 C   0  0  0  0  0  0  0  0  0  0  0  0
    5.8130   10.4450   12.9510 C   0  0  0  0  0  0  0  0  0  0  0  0
    8.2660   11.5850   15.3640 C   0  0  0  0  0  0  0  0  0  0  0  0
   10.4980   12.8530   17.6690 C   0  0  0  0  0  0  0  0  0  0  0  0
    9.1920   11.6760   19.5350 C   0  0  0  0  0  0  0  0  0  0  0  0
    6.9520   11.2870   15.0050 C   0  0  0  0  0  0  0  0  0  0  0  0
    5.5750    7.9270   15.6480 C   0  0  2  0  0  0  0  0  0  0  0  0
  1  3  2  0  0  0  0
  1 24  1  0  0  0  0
  2 12  1  0  0  0  0
  2 13  2  0  0  0  0
  2 27  1  0  0  0  0
  3 13  1  0  0  0  0
  4 10  1  0  0  0  0
  4 15  2  0  0  0  0
  5 11  1  0  0  0  0
  5 18  1  0  0  0  0
  5 28  2  0  0  0  0
  6 30  1  0  0  0  0
  7  9  2  0  0  0  0
  7 15  1  0  0  0  0
  8 22  2  0  0  0  0
  8 27  1  0  0  0  0
  9 25  1  0  0  0  0
  9 29  1  0  0  0  0
 10 13  1  0  0  0  0
 10 26  1  0  0  0  0
 12 24  2  0  0  0  0
 14 30  1  0  0  0  0
 16 19  1  0  0  0  0
 16 20  1  0  0  0  0
 16 30  1  0  0  0  0
 17 19  1  0  0  0  0
 17 21  1  0  0  0  0
 18 22  1  0  0  0  0
 19 25  1  0  0  0  0
 20 29  1  0  0  0  0
 21 30  1  0  0  0  0
 23 27  2  0  0  0  0
 23 28  1  0  0  0  0
 26 29  2  0  0  0  0
M  END
>  <Original_Directory>
3dle_A_rec_3i0s_rt7_lig_tt_docked_0_pocket10

>  <Original_Filename>
3dle_A_rec_3i0s_rt7_lig_tt_docked_0_pocket10_gen_sample_16.sdf

>  <Molecule_ID>
sample_16

>  <logS>
-5.6071301

$$$$