/tmp/tmpvu59yqi1
  MOE2022           3D

 36 40  0  0  1  0  0  0  0  0999 V2000
   18.8260   27.9700   10.7350 C   0  0  0  0  0  0  0  0  0  0  0  0
   20.2140   29.5740   13.6950 C   0  0  0  0  0  0  0  0  0  0  0  0
   20.8660   31.8880   15.5410 C   0  0  0  0  0  0  0  0  0  0  0  0
   15.9850   31.6950   15.6450 C   0  0  0  0  0  0  0  0  0  0  0  0
   19.9160   28.0820   13.7210 C   0  0  0  0  0  0  0  0  0  0  0  0
   17.5440   26.1720   11.7070 C   0  0  0  0  0  0  0  0  0  0  0  0
   18.4420   25.9430    9.4930 C   0  0  0  0  0  0  0  0  0  0  0  0
   17.5300   25.5460   10.4690 C   0  0  0  0  0  0  0  0  0  0  0  0
   18.2960   27.3420   11.8920 C   0  0  0  0  0  0  0  0  0  0  0  0
   20.4950   30.1740   12.3350 C   0  0  0  0  0  0  0  0  0  0  0  0
   20.6410   32.4880   16.7800 C   0  0  0  0  0  0  0  0  0  0  0  0
   19.3630   30.3640   11.3720 C   0  0  0  0  0  0  0  0  0  0  0  0
   19.5680   29.7210   16.2170 O   0  0  0  0  0  0  0  0  0  0  0  0
   20.8520   33.7780   17.1800 C   0  0  0  0  0  0  0  0  0  0  0  0
   22.3830   36.5560   18.4800 C   0  0  0  0  0  0  0  0  0  0  0  0
   18.3790   32.7080   14.0360 C   0  0  0  0  0  0  0  0  0  0  0  0
   16.5390   24.4510   10.1420 C   0  0  0  0  0  0  0  0  0  0  0  0
   21.8750   32.3040   14.6770 C   0  0  0  0  0  0  0  0  0  0  0  0
   18.9580   29.4460   10.5580 C   0  0  0  0  0  0  0  0  0  0  0  0
   21.5570   34.8200   16.5850 C   0  0  0  0  0  0  0  0  0  0  0  0
   18.4750   27.8130   13.3060 C   0  0  0  0  0  0  0  0  0  0  0  0
   16.3910   33.9550   14.8750 C   0  0  0  0  0  0  0  0  0  0  0  0
   15.6870   33.0370   15.6150 C   0  0  3  0  0  0  0  0  0  0  0  0
   17.1000   31.0260   15.2270 C   0  0  0  0  0  0  0  0  0  0  0  0
   22.2420   38.0100   18.0900 C   0  0  0  0  0  0  0  0  0  0  0  0
   14.5000   33.5490   16.3950 C   0  0  0  0  0  0  0  0  0  0  0  0
   22.4250   33.5620   14.6140 C   0  0  0  0  0  0  0  0  0  0  0  0
   22.2220   34.6950   15.3630 C   0  0  0  0  0  0  0  0  0  0  0  0
   19.1320   27.1490    9.6420 C   0  0  0  0  0  0  0  0  0  0  0  0
   17.5040   33.7440   14.1200 C   0  0  0  0  0  0  0  0  0  0  0  0
   21.5300   36.0820   17.3340 C   0  0  3  0  0  0  0  0  0  0  0  0
   21.6300   30.4630   12.0660 O   0  0  0  0  0  0  0  0  0  0  0  0
   19.7690   30.5920   15.0850 S   0  0  2  0  0  0  0  0  0  0  0  0
   18.3010   31.5030   14.7290 C   0  0  0  0  0  0  0  0  0  0  0  0
   21.1270   37.5340   17.1770 C   0  0  3  0  0  0  0  0  0  0  0  0
   20.8250   38.0930   15.9400 O   0  0  0  0  0  0  0  0  0  0  0  0
  1  9  1  0  0  0  0
  1 19  1  0  0  0  0
  1 29  2  0  0  0  0
  2  5  1  0  0  0  0
  2 10  1  0  0  0  0
  2 33  1  0  0  0  0
  3 11  1  0  0  0  0
  3 18  2  0  0  0  0
  3 33  1  0  0  0  0
  4 23  1  0  0  0  0
  4 24  2  0  0  0  0
  5 21  1  0  0  0  0
  6  8  1  0  0  0  0
  6  9  2  0  0  0  0
  7  8  2  0  0  0  0
  7 29  1  0  0  0  0
  8 17  1  0  0  0  0
  9 21  1  0  0  0  0
 10 12  1  0  0  0  0
 10 32  2  0  0  0  0
 11 14  1  0  0  0  0
 12 19  1  0  0  0  0
 13 33  1  0  0  0  0
 14 20  2  0  0  0  0
 15 25  1  0  0  0  0
 15 31  1  0  0  0  0
 16 30  1  0  0  0  0
 16 34  2  0  0  0  0
 18 27  1  0  0  0  0
 20 28  1  0  0  0  0
 20 31  1  0  0  0  0
 22 23  1  0  0  0  0
 22 30  2  0  0  0  0
 23 26  1  0  0  0  0
 24 34  1  0  0  0  0
 25 35  1  0  0  0  0
 27 28  2  0  0  0  0
 31 35  1  0  0  0  0
 33 34  1  0  0  0  0
 35 36  1  0  0  0  0
M  END
>  <Original_Directory>
3bgb_A_rec_1hpo_uni_lig_tt_docked_0_pocket10

>  <Original_Filename>
3bgb_A_rec_1hpo_uni_lig_tt_docked_0_pocket10_gen_sample_7.sdf

>  <Molecule_ID>
sample_7

>  <logS>
-6.45682

$$$$