/tmp/tmpnz0zpvfg
  MOE2022           3D

 20 23  0  0  1  0  0  0  0  0999 V2000
  373.4890  151.9470   60.4420 C   0  0  0  0  0  0  0  0  0  0  0  0
  378.4350  151.7540   63.5280 C   0  0  3  0  0  0  0  0  0  0  0  0
  373.4520  152.3220   61.7230 C   0  0  0  0  0  0  0  0  0  0  0  0
  379.5430  150.7960   63.2820 N   0  0  0  0  0  0  0  0  0  0  0  0
  379.0770  149.4260   63.0640 C   0  0  0  0  0  0  0  0  0  0  0  0
  377.9600  155.9980   62.2280 F   0  0  0  0  0  0  0  0  0  0  0  0
  378.1970  149.3920   61.8230 C   0  0  0  0  0  0  0  0  0  0  0  0
  375.0760  153.4650   59.3960 C   0  0  0  0  0  0  0  0  0  0  0  0
  376.9670  155.2470   61.8290 C   0  0  3  0  0  0  0  0  0  0  0  0
  377.1180  154.1420   60.8030 C   0  0  3  0  0  0  0  0  0  0  0  0
  377.8110  152.9330   61.3990 C   0  0  3  0  0  0  0  0  0  0  0  0
  375.6100  155.3970   62.4030 C   0  0  0  0  0  0  0  0  0  0  0  0
  377.1940  150.5480   61.8350 C   0  0  3  0  0  0  0  0  0  0  0  0
  377.1710  151.1350   63.1590 N   0  0  0  0  0  0  0  0  0  0  0  0
  373.9900  153.4460   62.3030 C   0  0  0  0  0  0  0  0  0  0  0  0
  374.0620  152.5270   59.3590 C   0  0  0  0  0  0  0  0  0  0  0  0
  374.9760  154.2060   61.7340 C   0  0  0  0  0  0  0  0  0  0  0  0
  375.6560  153.8740   60.5740 C   0  0  0  0  0  0  0  0  0  0  0  0
  378.7000  152.9650   62.6080 C   0  0  0  0  0  0  0  0  0  0  0  0
  377.6070  151.5870   60.7850 C   0  0  0  0  0  0  0  0  0  0  0  0
  1  3  1  0  0  0  0
  1 16  2  0  0  0  0
  2  4  1  0  0  0  0
  2 14  1  0  0  0  0
  2 19  1  0  0  0  0
  3 15  1  0  0  0  0
  4  5  1  0  0  0  0
  5  7  1  0  0  0  0
  6  9  1  0  0  0  0
  7 13  1  0  0  0  0
  8 16  1  0  0  0  0
  8 18  2  0  0  0  0
  9 10  1  0  0  0  0
  9 12  1  0  0  0  0
 10 11  1  0  0  0  0
 10 18  1  0  0  0  0
 11 19  1  0  0  0  0
 11 20  1  0  0  0  0
 12 17  1  0  0  0  0
 13 14  1  0  0  0  0
 13 20  1  0  0  0  0
 15 17  2  0  0  0  0
 17 18  1  0  0  0  0
M  END
>  <Original_Directory>
2qwd_A_rec_2qwd_4am_lig_tt_docked_4_pocket10

>  <Original_Filename>
2qwd_A_rec_2qwd_4am_lig_tt_docked_4_pocket10_gen_sample_15.sdf

>  <Molecule_ID>
sample_15

>  <logS>
-1.9762501

$$$$