/tmp/tmpz2ci49u2
  MOE2022           3D

 14 15  0  0  0  0  0  0  0  0999 V2000
   14.1780    4.6080   -1.9330 C   0  0  0  0  0  0  0  0  0  0  0  0
   15.1340    4.6480   -0.8610 N   0  0  0  0  0  0  0  0  0  0  0  0
   17.1730    4.0060    0.2130 C   0  0  0  0  0  0  0  0  0  0  0  0
   16.1980    3.7910   -0.7430 C   0  0  0  0  0  0  0  0  0  0  0  0
   13.7870    4.7950   -4.2940 C   0  0  0  0  0  0  0  0  0  0  0  0
   18.2180    5.6110    1.6270 O   0  0  0  0  0  0  0  0  0  0  0  0
   15.9480    5.9420    0.9900 C   0  0  0  0  0  0  0  0  0  0  0  0
   14.4380    5.3130   -3.1800 C   0  0  0  0  0  0  0  0  0  0  0  0
   12.8360    4.3300   -1.7010 C   0  0  0  0  0  0  0  0  0  0  0  0
   14.8980    5.4820    0.2200 C   0  0  0  0  0  0  0  0  0  0  0  0
   17.1510    5.2270    0.9390 C   0  0  0  0  0  0  0  0  0  0  0  0
   11.9540    4.3590   -2.7820 C   0  0  0  0  0  0  0  0  0  0  0  0
   15.0320    6.6670   -3.1650 C   0  0  0  0  0  0  0  0  0  0  0  0
   12.4520    4.4250   -4.0850 C   0  0  0  0  0  0  0  0  0  0  0  0
  1  2  1  0  0  0  0
  1  8  2  0  0  0  0
  1  9  1  0  0  0  0
  2  4  1  0  0  0  0
  2 10  1  0  0  0  0
  3  4  1  0  0  0  0
  3 11  2  0  0  0  0
  5  8  1  0  0  0  0
  5 14  2  0  0  0  0
  6 11  1  0  0  0  0
  7 10  2  0  0  0  0
  7 11  1  0  0  0  0
  8 13  1  0  0  0  0
  9 12  2  0  0  0  0
 12 14  1  0  0  0  0
M  END
>  <Original_Directory>
5ais_D_rec_2vcw_zza_lig_tt_docked_10_pocket10

>  <Original_Filename>
5ais_D_rec_2vcw_zza_lig_tt_docked_10_pocket10_gen_sample_3.sdf

>  <Molecule_ID>
sample_3

>  <logS>
-2.07407

$$$$