/tmp/tmpog9jcgrk
  MOE2022           3D

 11 11  0  0  1  0  0  0  0  0999 V2000
   10.3050  -13.1010   44.4910 C   0  0  0  0  0  0  0  0  0  0  0  0
   12.3250  -15.8580   40.1740 N   0  0  0  0  0  0  0  0  0  0  0  0
   11.5030  -15.3770   42.4150 C   0  0  0  0  0  0  0  0  0  0  0  0
   10.2790  -13.2030   41.9610 C   0  0  0  0  0  0  0  0  0  0  0  0
   12.5460  -15.2690   41.3310 C   0  0  0  0  0  0  0  0  0  0  0  0
   10.7410  -12.4850   43.2130 C   0  0  0  0  0  0  0  0  0  0  0  0
    9.5760  -15.2120   40.9090 O   0  0  0  0  0  0  0  0  0  0  0  0
   10.1440  -14.7150   42.1200 C   0  0  1  0  0  0  0  0  0  0  0  0
    9.1750  -14.9990   43.2640 C   0  0  0  0  0  0  0  0  0  0  0  0
    9.3530  -14.1570   44.4920 C   0  0  0  0  0  0  0  0  0  0  0  0
   13.6640  -14.6470   41.5530 N   0  0  0  0  0  0  0  0  0  0  0  0
  1  6  2  0  0  0  0
  1 10  1  0  0  0  0
  2  5  2  0  0  0  0
  3  5  1  0  0  0  0
  3  8  1  0  0  0  0
  4  6  1  0  0  0  0
  4  8  1  0  0  0  0
  5 11  1  0  0  0  0
  7  8  1  0  0  0  0
  8  9  1  0  0  0  0
  9 10  2  0  0  0  0
M  END
>  <Original_Directory>
1eob_B_rec_1eoc_4nc_lig_tt_docked_3_pocket10

>  <Original_Filename>
1eob_B_rec_1eoc_4nc_lig_tt_docked_3_pocket10_gen_sample_15.sdf

>  <Molecule_ID>
sample_15

>  <logS>
-0.79163998

$$$$