/tmp/tmpsviut103
  MOE2022           3D

 36 38  0  0  1  0  0  0  0  0999 V2000
   16.1780   25.0930    6.5340 O   0  0  0  0  0  0  0  0  0  0  0  0
   18.6360   30.4400   14.9680 N   0  0  0  0  0  0  0  0  0  0  0  0
   18.9240   31.6510   14.1980 C   0  0  3  0  0  0  0  0  0  0  0  0
   21.5810   34.1160   15.3810 C   0  0  0  0  0  0  0  0  0  0  0  0
   14.5150   34.2140   17.7540 C   0  0  0  0  0  0  0  0  0  0  0  0
   18.1670   27.2820   12.1230 C   0  0  3  0  0  0  0  0  0  0  0  0
   16.7340   32.5010   15.4080 C   0  0  0  0  0  0  0  0  0  0  0  0
   16.4120   35.4530   18.3070 C   0  0  0  0  0  0  0  0  0  0  0  0
   16.2150   33.7800   16.0020 C   0  0  0  0  0  0  0  0  0  0  0  0
   15.5180   24.1870    8.8080 O   0  0  0  0  0  0  0  0  0  0  0  0
   17.5830   27.1920    7.8310 O   0  0  0  0  0  0  0  0  0  0  0  0
   20.2040   27.9250   12.9160 N   0  0  0  0  0  0  0  0  0  0  0  0
   17.8580   23.9680    7.9420 O   0  0  0  0  0  0  0  0  0  0  0  0
   19.3970   29.3120   14.8850 C   0  0  0  0  0  0  0  0  0  0  0  0
   21.4110   31.7070   14.0130 C   0  0  0  0  0  0  0  0  0  0  0  0
   18.0910   28.5060   12.8550 O   0  0  0  0  0  0  0  0  0  0  0  0
   16.8430   28.4540   10.3900 O   0  0  0  0  0  0  0  0  0  0  0  0
   19.2650   28.5740   13.5850 C   0  0  0  0  0  0  0  0  0  0  0  0
   20.3370   33.5160   15.1840 C   0  0  0  0  0  0  0  0  0  0  0  0
   20.1480   28.9410   15.7710 O   0  0  0  0  0  0  0  0  0  0  0  0
   17.5450   24.8990   10.5950 O   0  0  0  0  0  0  0  0  0  0  0  0
   20.2550   32.2980   14.5160 C   0  0  0  0  0  0  0  0  0  0  0  0
   22.6500   32.2990   14.2230 C   0  0  0  0  0  0  0  0  0  0  0  0
   23.8910   33.6750   15.7260 O   0  0  0  0  0  0  0  0  0  0  0  0
   15.2910   34.8260   18.6410 N   0  0  0  0  0  0  0  0  0  0  0  0
   17.0230   35.6430   17.1180 C   0  0  0  0  0  0  0  0  0  0  0  0
   16.9680   34.8940   15.9890 N   0  0  0  0  0  0  0  0  0  0  0  0
   17.6940   33.5370   13.5260 O   0  0  0  0  0  0  0  0  0  0  0  0
   16.9790   26.2870    8.6900 N   0  0  0  0  0  0  0  0  0  0  0  0
   14.9250   33.7700   16.5260 C   0  0  0  0  0  0  0  0  0  0  0  0
   19.6190   27.1760   11.8310 C   0  0  0  0  0  0  0  0  0  0  0  0
   22.7380   33.4160   15.0440 C   0  0  0  0  0  0  0  0  0  0  0  0
   17.7640   32.6120   14.3230 C   0  0  0  0  0  0  0  0  0  0  0  0
   16.6280   24.8140    7.9440 P   0  0  0  0  0  0  0  0  0  0  0  0
   17.6300   26.1610    9.9960 C   0  0  3  0  0  0  0  0  0  0  0  0
   17.1680   27.2220   10.9920 C   0  0  3  0  0  0  0  0  0  0  0  0
  1 34  2  0  0  0  0
  2  3  1  0  0  0  0
  2 14  1  0  0  0  0
  3 22  1  0  0  0  0
  3 33  1  0  0  0  0
  4 19  2  0  0  0  0
  4 32  1  0  0  0  0
  5 25  1  0  0  0  0
  5 30  2  0  0  0  0
  6 16  1  0  0  0  0
  6 31  1  0  0  0  0
  6 36  1  0  0  0  0
  7  9  1  0  0  0  0
  7 33  1  0  0  0  0
  8 25  1  0  0  0  0
  8 26  2  0  0  0  0
  9 27  2  0  0  0  0
  9 30  1  0  0  0  0
 10 34  1  0  0  0  0
 11 29  1  0  0  0  0
 12 18  2  0  0  0  0
 12 31  1  0  0  0  0
 13 34  1  0  0  0  0
 14 18  1  0  0  0  0
 14 20  2  0  0  0  0
 15 22  2  0  0  0  0
 15 23  1  0  0  0  0
 16 18  1  0  0  0  0
 17 36  1  0  0  0  0
 19 22  1  0  0  0  0
 21 35  1  0  0  0  0
 23 32  2  0  0  0  0
 24 32  1  0  0  0  0
 26 27  1  0  0  0  0
 28 33  2  0  0  0  0
 29 34  1  0  0  0  0
 29 35  1  0  0  0  0
 35 36  1  0  0  0  0
M  END
>  <Original_Directory>
3saa_A_rec_4mc6_23k_lig_tt_docked_2_pocket10

>  <Original_Filename>
3saa_A_rec_4mc6_23k_lig_tt_docked_2_pocket10_gen_sample_5.sdf

>  <Molecule_ID>
sample_5

>  <logS>
-0.99471003

$$$$