/tmp/tmpigxax4fs
  MOE2022           3D

 29 32  0  0  1  0  0  0  0  0999 V2000
  -11.3380   23.6200   10.3100 C   0  0  0  0  0  0  0  0  0  0  0  0
  -13.3130   19.3820    6.0090 N   0  0  0  0  0  0  0  0  0  0  0  0
  -13.0300   22.2250    9.1180 C   0  0  0  0  0  0  0  0  0  0  0  0
  -11.0870   21.9140    7.0370 C   0  0  0  0  0  0  0  0  0  0  0  0
  -16.0100   16.5080    3.6910 C   0  0  0  0  0  0  0  0  0  0  0  0
  -11.1310   23.0090    7.8800 C   0  0  0  0  0  0  0  0  0  0  0  0
  -16.2560   17.7040    5.7280 O   0  0  0  0  0  0  0  0  0  0  0  0
  -14.2310   14.6870    5.7190 C   0  0  0  0  0  0  0  0  0  0  0  0
  -11.9570   19.7910    6.0510 C   0  0  0  0  0  0  0  0  0  0  0  0
  -15.3470   15.5120    5.8430 C   0  0  0  0  0  0  0  0  0  0  0  0
  -11.7400   20.4930    4.8840 O   0  0  0  0  0  0  0  0  0  0  0  0
  -11.7340   21.2200   10.8960 C   0  0  3  0  0  0  0  0  0  0  0  0
  -14.3760   13.3760    6.0960 N   0  0  0  0  0  0  0  0  0  0  0  0
  -11.4220   22.5400   11.3440 C   0  0  3  0  0  0  0  0  0  0  0  0
  -11.8320   20.2170    8.5650 C   0  0  0  0  0  0  0  0  0  0  0  0
  -11.6440   20.6680    7.2570 C   0  0  3  0  0  0  0  0  0  0  0  0
  -11.0890   18.7500    6.0870 O   0  0  0  0  0  0  0  0  0  0  0  0
  -11.8180   20.2560   11.8930 C   0  0  0  0  0  0  0  0  0  0  0  0
  -11.5170   22.8420   12.6550 N   0  0  0  0  0  0  0  0  0  0  0  0
  -13.0160   15.2040    5.2680 C   0  0  0  0  0  0  0  0  0  0  0  0
  -11.9290   23.0910    9.0270 C   0  0  3  0  0  0  0  0  0  0  0  0
  -11.9100   20.6050   13.1850 N   0  0  0  0  0  0  0  0  0  0  0  0
  -15.4070   16.7810    5.0530 C   0  0  1  0  0  0  0  0  0  0  0  0
  -11.5370   21.8490   13.5580 C   0  0  0  0  0  0  0  0  0  0  0  0
  -12.9300   16.5540    4.9090 C   0  0  0  0  0  0  0  0  0  0  0  0
  -14.0270   17.3780    4.9310 C   0  0  0  0  0  0  0  0  0  0  0  0
  -11.4230   22.1510   14.8510 N   0  0  0  0  0  0  0  0  0  0  0  0
  -13.8590   18.8420    4.7940 C   0  0  0  0  0  0  0  0  0  0  0  0
  -12.3000   21.1140    9.5520 C   0  0  3  0  0  0  0  0  0  0  0  0
  1 14  1  0  0  0  0
  1 21  1  0  0  0  0
  2  9  1  0  0  0  0
  2 28  1  0  0  0  0
  3 21  1  0  0  0  0
  3 29  1  0  0  0  0
  4  6  2  0  0  0  0
  4 16  1  0  0  0  0
  5 23  1  0  0  0  0
  6 21  1  0  0  0  0
  7 23  1  0  0  0  0
  8 10  1  0  0  0  0
  8 13  1  0  0  0  0
  8 20  2  0  0  0  0
  9 11  1  0  0  0  0
  9 16  1  0  0  0  0
  9 17  1  0  0  0  0
 10 23  1  0  0  0  0
 12 14  1  0  0  0  0
 12 18  1  0  0  0  0
 12 29  1  0  0  0  0
 14 19  1  0  0  0  0
 15 16  1  0  0  0  0
 15 29  1  0  0  0  0
 18 22  1  0  0  0  0
 19 24  2  0  0  0  0
 20 25  1  0  0  0  0
 22 24  1  0  0  0  0
 23 26  1  0  0  0  0
 24 27  1  0  0  0  0
 25 26  2  0  0  0  0
 26 28  1  0  0  0  0
M  END
>  <Original_Directory>
1y3v_A_rec_2zfs_12u_lig_tt_docked_0_pocket10

>  <Original_Filename>
1y3v_A_rec_2zfs_12u_lig_tt_docked_0_pocket10_gen_sample_3.sdf

>  <Molecule_ID>
sample_3

>  <logS>
-1.7491601

$$$$