/tmp/tmplt3wplsa
  MOE2022           3D

 24 27  0  0  1  0  0  0  0  0999 V2000
   47.2030   39.1600   -3.6440 C   0  0  0  0  0  0  0  0  0  0  0  0
   53.9520   44.4960   -3.0870 C   0  0  0  0  0  0  0  0  0  0  0  0
   48.3080   39.9740   -3.9060 C   0  0  0  0  0  0  0  0  0  0  0  0
   48.8030   39.4800   -0.8670 O   0  0  0  0  0  0  0  0  0  0  0  0
   50.4620   40.7680   -3.4860 N   0  0  0  0  0  0  0  0  0  0  0  0
   53.5740   44.7320   -1.7920 C   0  0  3  0  0  0  0  0  0  0  0  0
   52.2000   45.1610    0.0770 C   0  0  0  0  0  0  0  0  0  0  0  0
   54.5280   45.2780   -0.7830 C   0  0  0  0  0  0  0  0  0  0  0  0
   47.2350   38.0300   -2.6490 C   0  0  0  0  0  0  0  0  0  0  0  0
   49.4590   40.1490   -1.7050 C   0  0  0  0  0  0  0  0  0  0  0  0
   47.0640   41.0100   -5.6930 C   0  0  0  0  0  0  0  0  0  0  0  0
   48.2840   40.7260   -5.0830 C   0  0  0  0  0  0  0  0  0  0  0  0
   46.0190   39.3310   -4.3530 C   0  0  0  0  0  0  0  0  0  0  0  0
   53.5610   43.4140   -3.8380 C   0  0  0  0  0  0  0  0  0  0  0  0
   53.5960   45.7240    0.3390 C   0  0  3  0  0  0  0  0  0  0  0  0
   51.5320   42.6550   -2.6320 C   0  0  0  0  0  0  0  0  0  0  0  0
   50.8760   41.4810   -2.4460 C   0  0  0  0  0  0  0  0  0  0  0  0
   52.3810   42.7450   -3.7060 C   0  0  0  0  0  0  0  0  0  0  0  0
   50.4430   40.9510   -1.3170 N   0  0  0  0  0  0  0  0  0  0  0  0
   51.3310   43.7290   -1.7890 C   0  0  0  0  0  0  0  0  0  0  0  0
   52.3030   44.5670   -1.2940 C   0  0  0  0  0  0  0  0  0  0  0  0
   54.1160   45.2780    1.5830 O   0  0  0  0  0  0  0  0  0  0  0  0
   45.9160   40.3590   -5.2800 C   0  0  0  0  0  0  0  0  0  0  0  0
   49.3500   40.1870   -3.0580 C   0  0  3  0  0  0  0  0  0  0  0  0
  1  3  1  0  0  0  0
  1  9  1  0  0  0  0
  1 13  2  0  0  0  0
  2  6  1  0  0  0  0
  2 14  2  0  0  0  0
  3 12  2  0  0  0  0
  3 24  1  0  0  0  0
  4 10  2  0  0  0  0
  5 17  2  0  0  0  0
  5 24  1  0  0  0  0
  6  8  1  0  0  0  0
  6 21  1  0  0  0  0
  7 15  1  0  0  0  0
  7 21  1  0  0  0  0
  8 15  1  0  0  0  0
 10 19  1  0  0  0  0
 10 24  1  0  0  0  0
 11 12  1  0  0  0  0
 11 23  2  0  0  0  0
 13 23  1  0  0  0  0
 14 18  1  0  0  0  0
 15 22  1  0  0  0  0
 16 17  1  0  0  0  0
 16 18  2  0  0  0  0
 16 20  1  0  0  0  0
 17 19  1  0  0  0  0
 20 21  2  0  0  0  0
M  END
>  <Original_Directory>
4zmg_A_rec_3kvm_951_lig_tt_min_0_pocket10

>  <Original_Filename>
4zmg_A_rec_3kvm_951_lig_tt_min_0_pocket10_gen_sample_4.sdf

>  <Molecule_ID>
sample_4

>  <logS>
-4.1078

$$$$