/tmp/tmpyyt50r8l
  MOE2022           3D

 29 33  0  0  1  0  0  0  0  0999 V2000
  -27.3460   23.8870  -17.2440 C   0  0  0  0  0  0  0  0  0  0  0  0
  -21.0370   21.2850  -21.5030 C   0  0  3  0  0  0  0  0  0  0  0  0
  -25.3850   23.1720  -20.2140 C   0  0  0  0  0  0  0  0  0  0  0  0
  -25.8460   23.9190  -19.1370 C   0  0  0  0  0  0  0  0  0  0  0  0
  -23.2170   22.0210  -20.6110 C   0  0  3  0  0  0  0  0  0  0  0  0
  -28.5800   21.8240  -16.8230 C   0  0  0  0  0  0  0  0  0  0  0  0
  -21.5670   19.8930  -21.2200 C   0  0  3  0  0  0  0  0  0  0  0  0
  -29.0250   23.7340  -15.5700 O   0  0  0  0  0  0  0  0  0  0  0  0
  -28.0410   23.0570  -19.4460 C   0  0  0  0  0  0  0  0  0  0  0  0
  -30.0590   22.0110  -20.1800 C   0  0  0  0  0  0  0  0  0  0  0  0
  -30.0670   19.7150  -19.4700 C   0  0  0  0  0  0  0  0  0  0  0  0
  -28.1270   20.8760  -15.9930 O   0  0  0  0  0  0  0  0  0  0  0  0
  -20.4410   21.7590  -20.1740 C   0  0  0  0  0  0  0  0  0  0  0  0
  -30.4820   20.6940  -20.3840 C   0  0  0  0  0  0  0  0  0  0  0  0
  -26.6160   24.9110  -16.6330 C   0  0  0  0  0  0  0  0  0  0  0  0
  -29.8280   18.2970  -19.9240 C   0  0  0  0  0  0  0  0  0  0  0  0
  -29.7130   20.1220  -18.1680 C   0  0  0  0  0  0  0  0  0  0  0  0
  -22.2620   22.1580  -21.7650 C   0  0  0  0  0  0  0  0  0  0  0  0
  -25.2210   25.0590  -18.6210 C   0  0  0  0  0  0  0  0  0  0  0  0
  -22.5500   19.7280  -20.1090 C   0  0  0  0  0  0  0  0  0  0  0  0
  -24.5690   22.2870  -20.7260 C   0  0  0  0  0  0  0  0  0  0  0  0
  -29.0900   22.2000  -19.1870 C   0  0  0  0  0  0  0  0  0  0  0  0
  -22.7950   21.0910  -19.4800 C   0  0  3  0  0  0  0  0  0  0  0  0
  -27.0800   23.5520  -18.5800 C   0  0  0  0  0  0  0  0  0  0  0  0
  -21.4300   18.9470  -22.1570 N   0  0  0  0  0  0  0  0  0  0  0  0
  -29.1300   21.3940  -18.0350 C   0  0  0  0  0  0  0  0  0  0  0  0
  -25.6080   25.5380  -17.3600 C   0  0  0  0  0  0  0  0  0  0  0  0
  -21.4200   21.6050  -19.0190 C   0  0  0  0  0  0  0  0  0  0  0  0
  -28.2980   23.1490  -16.5250 C   0  0  3  0  0  0  0  0  0  0  0  0
  1 15  1  0  0  0  0
  1 24  2  0  0  0  0
  1 29  1  0  0  0  0
  2  7  1  0  0  0  0
  2 13  1  0  0  0  0
  2 18  1  0  0  0  0
  3  4  1  0  0  0  0
  3 21  1  0  0  0  0
  4 19  2  0  0  0  0
  4 24  1  0  0  0  0
  5 18  1  0  0  0  0
  5 21  1  0  0  0  0
  5 23  1  0  0  0  0
  6 12  1  0  0  0  0
  6 26  2  0  0  0  0
  6 29  1  0  0  0  0
  7 20  1  0  0  0  0
  7 25  1  0  0  0  0
  8 29  1  0  0  0  0
  9 22  2  0  0  0  0
  9 24  1  0  0  0  0
 10 14  2  0  0  0  0
 10 22  1  0  0  0  0
 11 14  1  0  0  0  0
 11 16  1  0  0  0  0
 11 17  2  0  0  0  0
 13 28  1  0  0  0  0
 15 27  2  0  0  0  0
 17 26  1  0  0  0  0
 19 27  1  0  0  0  0
 20 23  1  0  0  0  0
 22 26  1  0  0  0  0
 23 28  1  0  0  0  0
M  END
>  <Original_Directory>
4xit_A_rec_4xir_40x_lig_tt_min_0_pocket10

>  <Original_Filename>
4xit_A_rec_4xir_40x_lig_tt_min_0_pocket10_gen_sample_5.sdf

>  <Molecule_ID>
sample_5

>  <logS>
-5.98979

$$$$