/tmp/tmp7i2pdlu6
  MOE2022           3D

 12 14  0  0  1  0  0  0  0  0999 V2000
    4.1120    6.8710    4.6510 C   0  0  3  0  0  0  0  0  0  0  0  0
    4.6780    8.9970    2.4570 C   0  0  0  0  0  0  0  0  0  0  0  0
    4.5590    7.0950    0.6070 O   0  0  0  0  0  0  0  0  0  0  0  0
    5.6280    6.6110    2.7340 C   0  0  3  0  0  0  0  0  0  0  0  0
    5.2030    5.9500    4.0540 C   0  0  0  0  0  0  0  0  0  0  0  0
    3.3140    8.7160    3.0590 C   0  0  0  0  0  0  0  0  0  0  0  0
    3.0870    7.2890    3.5680 C   0  0  3  0  0  0  0  0  0  0  0  0
    6.0540    8.4680    4.4120 C   0  0  0  0  0  0  0  0  0  0  0  0
    5.8550    8.1220    2.9250 C   0  0  3  0  0  0  0  0  0  0  0  0
    3.1230    6.3120    2.3790 C   0  0  0  0  0  0  0  0  0  0  0  0
    4.8260    8.0870    5.2380 C   0  0  0  0  0  0  0  0  0  0  0  0
    4.5190    6.2620    1.7510 C   0  0  3  0  0  0  0  0  0  0  0  0
  1  5  1  0  0  0  0
  1  7  1  0  0  0  0
  1 11  1  0  0  0  0
  2  6  1  0  0  0  0
  2  9  1  0  0  0  0
  3 12  1  0  0  0  0
  4  5  1  0  0  0  0
  4  9  1  0  0  0  0
  4 12  1  0  0  0  0
  6  7  1  0  0  0  0
  7 10  1  0  0  0  0
  8  9  1  0  0  0  0
  8 11  1  0  0  0  0
 10 12  1  0  0  0  0
M  END
>  <Original_Directory>
1rw8_A_rec_4x0m_3wa_lig_tt_docked_5_pocket10

>  <Original_Filename>
1rw8_A_rec_4x0m_3wa_lig_tt_docked_5_pocket10_gen_sample_11.sdf

>  <Molecule_ID>
sample_11

>  <logS>
-2.9177101

$$$$