/tmp/tmptj_ri3yv
  MOE2022           3D

 14 15  0  0  1  0  0  0  0  0999 V2000
   -6.2410   15.0250  -18.2160 O   0  0  0  0  0  0  0  0  0  0  0  0
   -4.1200   12.0060  -17.6540 C   0  0  0  0  0  0  0  0  0  0  0  0
   -3.1340   12.6510  -16.6950 C   0  0  0  0  0  0  0  0  0  0  0  0
   -3.9930   14.8750  -17.3920 C   0  0  3  0  0  0  0  0  0  0  0  0
   -5.0020   14.3460  -18.3830 C   0  0  3  0  0  0  0  0  0  0  0  0
   -3.5450   14.0490  -16.2310 C   0  0  2  0  0  0  0  0  0  0  0  0
   -3.1540   16.0910  -17.5940 C   0  0  0  0  0  0  0  0  0  0  0  0
   -6.3540   12.3870  -18.3040 O   0  0  0  0  0  0  0  0  0  0  0  0
   -2.3420   14.8140  -15.6830 C   0  0  0  0  0  0  0  0  0  0  0  0
   -2.6370   17.2620  -15.5900 O   0  0  0  0  0  0  0  0  0  0  0  0
   -4.5990   13.9430  -15.2730 O   0  0  0  0  0  0  0  0  0  0  0  0
   -5.2380   12.8580  -18.2070 C   0  0  0  0  0  0  0  0  0  0  0  0
   -2.2460   16.1790  -16.3870 C   0  0  0  0  0  0  0  0  0  0  0  0
   -0.9120   16.4060  -16.7640 O   0  0  0  0  0  0  0  0  0  0  0  0
  1  5  1  0  0  0  0
  2  3  1  0  0  0  0
  2 12  1  0  0  0  0
  3  6  1  0  0  0  0
  4  5  1  0  0  0  0
  4  6  1  0  0  0  0
  4  7  1  0  0  0  0
  5 12  1  0  0  0  0
  6  9  1  0  0  0  0
  6 11  1  0  0  0  0
  7 13  1  0  0  0  0
  8 12  2  0  0  0  0
  9 13  1  0  0  0  0
 10 13  1  0  0  0  0
 13 14  1  0  0  0  0
M  END
>  <Original_Directory>
2ox0_A_rec_3njy_8xq_lig_tt_min_0_pocket10

>  <Original_Filename>
2ox0_A_rec_3njy_8xq_lig_tt_min_0_pocket10_gen_sample_3.sdf

>  <Molecule_ID>
sample_3

>  <logS>
-0.028929999

$$$$