/tmp/tmpiggsqdfs
  MOE2022           3D

 16 16  0  0  1  0  0  0  0  0999 V2000
    1.6880  -39.3040   14.1100 C   0  0  1  0  0  0  0  0  0  0  0  0
    2.8010  -38.5000   14.6350 C   0  0  0  0  0  0  0  0  0  0  0  0
    2.0940  -40.7930   14.0420 C   0  0  0  0  0  0  0  0  0  0  0  0
    0.9830  -39.2370   18.8850 O   0  0  0  0  0  0  0  0  0  0  0  0
    0.3690  -38.7230   16.1870 C   0  0  0  0  0  0  0  0  0  0  0  0
    2.8010  -37.2620   15.2190 C   0  0  0  0  0  0  0  0  0  0  0  0
    2.7780  -38.2940   11.9850 O   0  0  0  0  0  0  0  0  0  0  0  0
    0.4490  -39.1390   14.8740 C   0  0  0  0  0  0  0  0  0  0  0  0
    2.0120  -36.9050   16.3260 C   0  0  0  0  0  0  0  0  0  0  0  0
    1.2850  -37.9610   16.9240 C   0  0  3  0  0  0  0  0  0  0  0  0
    3.4920  -40.9530   13.8290 O   0  0  0  0  0  0  0  0  0  0  0  0
    1.4880  -38.8370   12.3840 S   0  0  0  0  0  0  0  0  0  0  0  0
    0.3840  -37.8950   12.2800 O   0  0  0  0  0  0  0  0  0  0  0  0
    1.1240  -40.0590   11.6210 O   0  0  0  0  0  0  0  0  0  0  0  0
    2.3760  -37.5200   18.9730 O   0  0  0  0  0  0  0  0  0  0  0  0
    1.6040  -38.2980   18.3590 C   0  0  0  0  0  0  0  0  0  0  0  0
  1  2  1  0  0  0  0
  1  3  1  0  0  0  0
  1  8  1  0  0  0  0
  1 12  1  0  0  0  0
  2  6  1  0  0  0  0
  3 11  1  0  0  0  0
  4 16  2  0  0  0  0
  5  8  1  0  0  0  0
  5 10  1  0  0  0  0
  6  9  2  0  0  0  0
  7 12  1  0  0  0  0
  9 10  1  0  0  0  0
 10 16  1  0  0  0  0
 12 13  1  0  0  0  0
 12 14  1  0  0  0  0
 15 16  1  0  0  0  0
M  END
>  <Original_Directory>
3st6_A_rec_3st6_rve_lig_tt_min_0_pocket10

>  <Original_Filename>
3st6_A_rec_3st6_rve_lig_tt_min_0_pocket10_gen_sample_13.sdf

>  <Molecule_ID>
sample_13

>  <logS>
-0.10099

$$$$