/tmp/tmp12t60aak
  MOE2022           3D

 22 25  0  0  1  0  0  0  0  0999 V2000
   13.0560    7.5400   13.0200 O   0  0  0  0  0  0  0  0  0  0  0  0
   12.8340    9.5340   10.3440 O   0  0  0  0  0  0  0  0  0  0  0  0
   12.8810    7.3890   10.6970 C   0  0  0  0  0  0  0  0  0  0  0  0
   12.4300    8.3250    9.8530 C   0  0  0  0  0  0  0  0  0  0  0  0
   11.5990    8.0110    8.8220 C   0  0  0  0  0  0  0  0  0  0  0  0
    6.8700   12.4230   16.1270 C   0  0  0  0  0  0  0  0  0  0  0  0
   10.4340   11.0600   14.4460 C   0  0  0  0  0  0  0  0  0  0  0  0
   12.2610   11.2630   12.8990 C   0  0  0  0  0  0  0  0  0  0  0  0
   10.4850    9.6990   14.2270 C   0  0  0  0  0  0  0  0  0  0  0  0
   11.0460    9.2470   13.0790 N   0  0  0  0  0  0  0  0  0  0  0  0
    9.3650   11.6950   15.1270 C   0  0  0  0  0  0  0  0  0  0  0  0
    8.9880   11.3180   16.4120 C   0  0  0  0  0  0  0  0  0  0  0  0
    7.3350   12.9750   14.9460 C   0  0  0  0  0  0  0  0  0  0  0  0
    7.7310   11.6700   16.9070 C   0  0  0  0  0  0  0  0  0  0  0  0
   13.0860    8.0190   11.8330 C   0  0  0  0  0  0  0  0  0  0  0  0
   12.1190    5.7010    9.2310 C   0  0  0  0  0  0  0  0  0  0  0  0
   11.4700   11.8080   13.8990 C   0  0  0  0  0  0  0  0  0  0  0  0
   12.8230    9.2910   11.6920 C   0  0  3  0  0  0  0  0  0  0  0  0
   12.8410    6.1000   10.3470 C   0  0  0  0  0  0  0  0  0  0  0  0
   12.0600    9.9450   12.5460 C   0  0  0  0  0  0  0  0  0  0  0  0
    8.6190   12.6870   14.4970 C   0  0  0  0  0  0  0  0  0  0  0  0
   11.3960    6.6710    8.5360 C   0  0  0  0  0  0  0  0  0  0  0  0
  1 15  2  0  0  0  0
  2  4  1  0  0  0  0
  2 18  1  0  0  0  0
  3  4  2  0  0  0  0
  3 15  1  0  0  0  0
  3 19  1  0  0  0  0
  4  5  1  0  0  0  0
  5 22  2  0  0  0  0
  6 13  2  0  0  0  0
  6 14  1  0  0  0  0
  7  9  1  0  0  0  0
  7 11  1  0  0  0  0
  7 17  2  0  0  0  0
  8 17  1  0  0  0  0
  8 20  2  0  0  0  0
  9 10  2  0  0  0  0
 10 20  1  0  0  0  0
 11 12  1  0  0  0  0
 11 21  2  0  0  0  0
 12 14  2  0  0  0  0
 13 21  1  0  0  0  0
 15 18  1  0  0  0  0
 16 19  2  0  0  0  0
 16 22  1  0  0  0  0
 18 20  1  0  0  0  0
M  END
>  <Original_Directory>
1kpf_A_rec_6b42_d5m_lig_tt_docked_0_pocket10

>  <Original_Filename>
1kpf_A_rec_6b42_d5m_lig_tt_docked_0_pocket10_gen_sample_13.sdf

>  <Molecule_ID>
sample_13

>  <logS>
-4.9780698

$$$$