/tmp/tmpun6m91ic
  MOE2022           3D

 11 12  0  0  1  0  0  0  0  0999 V2000
   10.0480   17.5250   93.4370 C   0  0  0  0  0  0  0  0  0  0  0  0
   11.2370   17.6130   92.6960 C   0  0  0  0  0  0  0  0  0  0  0  0
    9.1390   17.3990   90.3370 C   0  0  0  0  0  0  0  0  0  0  0  0
    7.4010   17.2530   94.7710 O   0  0  0  0  0  0  0  0  0  0  0  0
    8.4740   16.9990   91.4840 C   0  0  0  0  0  0  0  0  0  0  0  0
   10.5150   17.6500   90.2630 C   0  0  0  0  0  0  0  0  0  0  0  0
    7.0920   16.4310   91.4610 C   0  0  0  0  0  0  0  0  0  0  0  0
   11.3980   17.6370   91.3230 C   0  0  0  0  0  0  0  0  0  0  0  0
    6.5450   16.9950   92.6780 O   0  0  0  0  0  0  0  0  0  0  0  0
    8.8250   17.2300   92.8380 C   0  0  3  0  0  0  0  0  0  0  0  0
    7.5990   16.9980   93.6190 C   0  0  0  0  0  0  0  0  0  0  0  0
  1  2  2  0  0  0  0
  1 10  1  0  0  0  0
  2  8  1  0  0  0  0
  3  5  2  0  0  0  0
  3  6  1  0  0  0  0
  4 11  2  0  0  0  0
  5  7  1  0  0  0  0
  5 10  1  0  0  0  0
  6  8  2  0  0  0  0
  7  9  1  0  0  0  0
  9 11  1  0  0  0  0
 10 11  1  0  0  0  0
M  END
>  <Original_Directory>
1enu_A_rec_1q2r_9dg_lig_tt_docked_0_pocket10

>  <Original_Filename>
1enu_A_rec_1q2r_9dg_lig_tt_docked_0_pocket10_gen_sample_17.sdf

>  <Molecule_ID>
sample_17

>  <logS>
-1.5799201

$$$$