/tmp/tmpsuv_booy
  MOE2022           3D

  8  9  0  0  0  0  0  0  0  0999 V2000
   16.7240   30.7740   35.8800 C   0  0  0  0  0  0  0  0  0  0  0  0
   17.4520   29.5000   35.4700 C   0  0  0  0  0  0  0  0  0  0  0  0
   17.9170   31.6520   35.5090 C   0  0  0  0  0  0  0  0  0  0  0  0
   17.8260   29.7420   34.0020 C   0  0  0  0  0  0  0  0  0  0  0  0
   18.2230   31.2330   34.0520 C   0  0  0  0  0  0  0  0  0  0  0  0
   19.0510   31.0390   36.3490 C   0  0  0  0  0  0  0  0  0  0  0  0
   16.7020   28.3170   35.6610 O   0  0  0  0  0  0  0  0  0  0  0  0
   18.7320   29.5450   36.3240 C   0  0  0  0  0  0  0  0  0  0  0  0
  1  2  1  0  0  0  0
  1  3  1  0  0  0  0
  2  4  1  0  0  0  0
  2  7  1  0  0  0  0
  2  8  1  0  0  0  0
  3  5  1  0  0  0  0
  3  6  1  0  0  0  0
  4  5  1  0  0  0  0
  6  8  1  0  0  0  0
M  END
>  <Original_Directory>
4uua_A_rec_4utr_gua_lig_tt_min_0_pocket10

>  <Original_Filename>
4uua_A_rec_4utr_gua_lig_tt_min_0_pocket10_gen_sample_19.sdf

>  <Molecule_ID>
sample_19

>  <logS>
-0.77086002

$$$$