/tmp/tmpdo9gqe15
  MOE2022           3D

 22 25  0  0  1  0  0  0  0  0999 V2000
   14.2590   11.7350   18.1050 C   0  0  0  0  0  0  0  0  0  0  0  0
   17.4870    9.6990   13.8280 C   0  0  0  0  0  0  0  0  0  0  0  0
   16.4290   11.0010   17.1680 C   0  0  0  0  0  0  0  0  0  0  0  0
   17.0560    9.6420   12.5050 C   0  0  0  0  0  0  0  0  0  0  0  0
   13.5250   11.6730   20.5740 C   0  0  3  0  0  0  0  0  0  0  0  0
   13.4110   13.1920   20.3570 C   0  0  0  0  0  0  0  0  0  0  0  0
   11.8780    9.8740   20.0920 O   0  0  0  0  0  0  0  0  0  0  0  0
   16.6350   10.1620   14.9210 C   0  0  0  0  0  0  0  0  0  0  0  0
   15.2710   10.3400   14.7580 C   0  0  0  0  0  0  0  0  0  0  0  0
   12.0510   11.2440   20.3990 C   0  0  3  0  0  0  0  0  0  0  0  0
   14.5080   10.9380   15.7500 C   0  0  0  0  0  0  0  0  0  0  0  0
   18.8320    9.4560   14.1010 C   0  0  0  0  0  0  0  0  0  0  0  0
   15.0740   11.2260   16.9860 C   0  0  0  0  0  0  0  0  0  0  0  0
   12.4680   13.2670   19.1360 C   0  0  3  0  0  0  0  0  0  0  0  0
   11.4340   12.1530   19.3600 C   0  0  0  0  0  0  0  0  0  0  0  0
   19.7340    9.5910   13.0590 C   0  0  0  0  0  0  0  0  0  0  0  0
   17.1970   10.4390   16.1650 C   0  0  0  0  0  0  0  0  0  0  0  0
   14.3730   11.0600   19.4490 C   0  0  0  0  0  0  0  0  0  0  0  0
   17.9580    9.3520   11.4910 C   0  0  0  0  0  0  0  0  0  0  0  0
   20.9060   10.1870   13.3000 F   0  0  0  0  0  0  0  0  0  0  0  0
   13.3180   12.8920   17.9090 C   0  0  0  0  0  0  0  0  0  0  0  0
   19.3220    9.3820   11.7540 C   0  0  0  0  0  0  0  0  0  0  0  0
  1 13  1  0  0  0  0
  1 18  2  0  0  0  0
  1 21  1  0  0  0  0
  2  4  1  0  0  0  0
  2  8  1  0  0  0  0
  2 12  2  0  0  0  0
  3 13  2  0  0  0  0
  3 17  1  0  0  0  0
  4 19  2  0  0  0  0
  5  6  1  0  0  0  0
  5 10  1  0  0  0  0
  5 18  1  0  0  0  0
  6 14  1  0  0  0  0
  7 10  1  0  0  0  0
  8  9  1  0  0  0  0
  8 17  2  0  0  0  0
  9 11  2  0  0  0  0
 10 15  1  0  0  0  0
 11 13  1  0  0  0  0
 12 16  1  0  0  0  0
 14 15  1  0  0  0  0
 14 21  1  0  0  0  0
 16 20  1  0  0  0  0
 16 22  2  0  0  0  0
 19 22  1  0  0  0  0
M  END
>  <Original_Directory>
5ai5_A_rec_5alr_8tm_lig_tt_docked_2_pocket10

>  <Original_Filename>
5ai5_A_rec_5alr_8tm_lig_tt_docked_2_pocket10_gen_sample_9.sdf

>  <Molecule_ID>
sample_9

>  <logS>
-5.1220698

$$$$