/tmp/tmpghjhqaer
  MOE2022           3D

 14 15  0  0  1  0  0  0  0  0999 V2000
  -10.7830  -26.7460    3.9600 O   0  0  0  0  0  0  0  0  0  0  0  0
  -11.7760  -28.6890    1.2540 C   0  0  0  0  0  0  0  0  0  0  0  0
  -14.3280  -26.7670    2.7730 C   0  0  0  0  0  0  0  0  0  0  0  0
  -15.7260  -29.4050    1.5770 C   0  0  0  0  0  0  0  0  0  0  0  0
  -14.0340  -28.5690    0.0710 C   0  0  0  0  0  0  0  0  0  0  0  0
  -13.1940  -28.2130    1.1500 C   0  0  3  0  0  0  0  0  0  0  0  0
  -12.7480  -28.5040    3.4410 N   0  0  0  0  0  0  0  0  0  0  0  0
  -15.2950  -29.1030    0.2890 C   0  0  0  0  0  0  0  0  0  0  0  0
  -10.5030  -27.5560    3.0500 C   0  0  0  0  0  0  0  0  0  0  0  0
  -13.8270  -28.1680    2.5060 C   0  0  1  0  0  0  0  0  0  0  0  0
  -11.4640  -28.6980    2.7530 C   0  0  2  0  0  0  0  0  0  0  0  0
  -10.9150  -29.9480    3.1340 O   0  0  0  0  0  0  0  0  0  0  0  0
  -14.9740  -29.0880    2.6590 C   0  0  0  0  0  0  0  0  0  0  0  0
   -9.4610  -27.4910    2.3490 O   0  0  0  0  0  0  0  0  0  0  0  0
  1  9  1  0  0  0  0
  2  6  1  0  0  0  0
  2 11  1  0  0  0  0
  3 10  1  0  0  0  0
  4  8  1  0  0  0  0
  4 13  2  0  0  0  0
  5  6  1  0  0  0  0
  5  8  2  0  0  0  0
  6 10  1  0  0  0  0
  7 10  1  0  0  0  0
  7 11  1  0  0  0  0
  9 11  1  0  0  0  0
  9 14  2  0  0  0  0
 10 13  1  0  0  0  0
 11 12  1  0  0  0  0
M  END
>  <Original_Directory>
5ezh_A_rec_5j1y_p87_lig_tt_docked_0_pocket10

>  <Original_Filename>
5ezh_A_rec_5j1y_p87_lig_tt_docked_0_pocket10_gen_sample_1.sdf

>  <Molecule_ID>
sample_1

>  <logS>
-0.80151999

$$$$