/tmp/tmpgabpq3_l
  MOE2022           3D

 22 25  0  0  0  0  0  0  0  0999 V2000
    9.0720   11.6850    4.0720 C   0  0  0  0  0  0  0  0  0  0  0  0
    7.2540   10.2720    5.5760 C   0  0  0  0  0  0  0  0  0  0  0  0
    3.6910    7.1470    3.9270 C   0  0  0  0  0  0  0  0  0  0  0  0
    6.5730    9.2140    6.1720 C   0  0  0  0  0  0  0  0  0  0  0  0
    7.7290   11.6350    3.6580 C   0  0  0  0  0  0  0  0  0  0  0  0
    5.8070    8.3650    5.3910 C   0  0  0  0  0  0  0  0  0  0  0  0
   11.5140   10.4190    4.3680 C   0  0  0  0  0  0  0  0  0  0  0  0
    7.0060   10.5780    4.2210 C   0  0  0  0  0  0  0  0  0  0  0  0
    6.2080    9.7340    3.4570 C   0  0  0  0  0  0  0  0  0  0  0  0
    2.8500    6.3400    3.1820 C   0  0  0  0  0  0  0  0  0  0  0  0
    1.9760    5.5190    3.7780 O   0  0  0  0  0  0  0  0  0  0  0  0
    2.2600    5.9250    0.8920 N   0  0  0  0  0  0  0  0  0  0  0  0
    5.2790    7.1700    2.1120 N   0  0  0  0  0  0  0  0  0  0  0  0
    8.3890   10.7990    6.1980 C   0  0  0  0  0  0  0  0  0  0  0  0
    5.6100    8.6250    4.0400 C   0  0  0  0  0  0  0  0  0  0  0  0
    4.8200    7.6760    3.2660 C   0  0  0  0  0  0  0  0  0  0  0  0
    4.4560    6.4170    1.4090 N   0  0  0  0  0  0  0  0  0  0  0  0
   10.0850   11.9160    3.1360 C   0  0  0  0  0  0  0  0  0  0  0  0
    9.4250   11.1460    5.3190 C   0  0  0  0  0  0  0  0  0  0  0  0
    3.2220    6.0660    1.8330 C   0  0  0  0  0  0  0  0  0  0  0  0
   10.6850   10.5640    5.4860 C   0  0  0  0  0  0  0  0  0  0  0  0
   11.2420   11.1410    3.2160 C   0  0  0  0  0  0  0  0  0  0  0  0
  1  5  1  0  0  0  0
  1 18  1  0  0  0  0
  1 19  2  0  0  0  0
  2  4  2  0  0  0  0
  2  8  1  0  0  0  0
  2 14  1  0  0  0  0
  3 10  1  0  0  0  0
  3 16  2  0  0  0  0
  4  6  1  0  0  0  0
  5  8  1  0  0  0  0
  6 15  2  0  0  0  0
  7 21  2  0  0  0  0
  7 22  1  0  0  0  0
  8  9  2  0  0  0  0
  9 15  1  0  0  0  0
 10 11  1  0  0  0  0
 10 20  2  0  0  0  0
 12 20  1  0  0  0  0
 13 16  1  0  0  0  0
 13 17  2  0  0  0  0
 14 19  1  0  0  0  0
 15 16  1  0  0  0  0
 17 20  1  0  0  0  0
 18 22  2  0  0  0  0
 19 21  1  0  0  0  0
M  END
>  <Original_Directory>
3gxl_A_rec_1vjy_460_lig_tt_min_0_pocket10

>  <Original_Filename>
3gxl_A_rec_1vjy_460_lig_tt_min_0_pocket10_gen_sample_16.sdf

>  <Molecule_ID>
sample_16

>  <logS>
-4.7721901

$$$$