/tmp/tmp9wzptqau
  MOE2022           3D

 30 33  0  0  1  0  0  0  0  0999 V2000
   16.4850   -2.1280  114.5930 C   0  0  0  0  0  0  0  0  0  0  0  0
   14.5480   -5.1790  115.0740 O   0  0  0  0  0  0  0  0  0  0  0  0
   16.1470    0.5330  116.0750 C   0  0  0  0  0  0  0  0  0  0  0  0
   16.9080    5.3910  111.4410 N   0  0  0  0  0  0  0  0  0  0  0  0
   15.7030   -1.8940  115.8420 C   0  0  3  0  0  0  0  0  0  0  0  0
   17.1100    6.6810  111.8460 C   0  0  0  0  0  0  0  0  0  0  0  0
   15.9690    4.5850  112.0490 C   0  0  0  0  0  0  0  0  0  0  0  0
   16.3980    7.2000  112.9010 C   0  0  0  0  0  0  0  0  0  0  0  0
   13.5250   -5.3880  113.8910 P   0  0  0  0  0  0  0  0  0  0  0  0
   14.5100    2.2280  114.5530 O   0  0  0  0  0  0  0  0  0  0  0  0
   15.1080   -3.1880  116.3080 C   0  0  0  0  0  0  0  0  0  0  0  0
   14.3380    5.0280  115.0300 C   0  0  3  0  0  0  0  0  0  0  0  0
   15.2770    4.1120  115.7720 C   0  0  0  0  0  0  0  0  0  0  0  0
   15.3810    6.4210  113.4430 C   0  0  3  0  0  0  0  0  0  0  0  0
   14.3080    1.1220  117.5080 C   0  0  0  0  0  0  0  0  0  0  0  0
   15.5180   -0.6780  116.4420 C   0  0  0  0  0  0  0  0  0  0  0  0
   15.0230    2.6640  115.5690 C   0  0  0  0  0  0  0  0  0  0  0  0
   15.0100    6.3910  114.8830 C   0  0  0  0  0  0  0  0  0  0  0  0
   16.1040   -3.5190  114.1150 C   0  0  0  0  0  0  0  0  0  0  0  0
   14.1500    4.5360  113.6960 O   0  0  0  0  0  0  0  0  0  0  0  0
   15.4210    1.7070  116.6620 C   0  0  3  0  0  0  0  0  0  0  0  0
   16.0650    3.3590  111.9890 O   0  0  0  0  0  0  0  0  0  0  0  0
   18.3710    7.3390  111.3700 C   0  0  0  0  0  0  0  0  0  0  0  0
   14.9910    5.2300  112.8310 C   0  0  3  0  0  0  0  0  0  0  0  0
   15.5430   -4.2320  115.2980 C   0  0  3  0  0  0  0  0  0  0  0  0
   14.3930   -0.3870  117.4010 C   0  0  0  0  0  0  0  0  0  0  0  0
   14.3280   -5.7810  112.6970 O   0  0  0  0  0  0  0  0  0  0  0  0
   12.8400   -4.0870  113.6740 O   0  0  0  0  0  0  0  0  0  0  0  0
   12.6790   -6.5490  114.3090 O   0  0  0  0  0  0  0  0  0  0  0  0
   17.1440    0.6750  115.3080 O   0  0  0  0  0  0  0  0  0  0  0  0
  1  5  1  0  0  0  0
  1 19  1  0  0  0  0
  2  9  1  0  0  0  0
  2 25  1  0  0  0  0
  3 16  1  0  0  0  0
  3 21  1  0  0  0  0
  3 30  2  0  0  0  0
  4  6  2  0  0  0  0
  4  7  1  0  0  0  0
  5 11  1  0  0  0  0
  5 16  1  0  0  0  0
  6  8  1  0  0  0  0
  6 23  1  0  0  0  0
  7 22  2  0  0  0  0
  7 24  1  0  0  0  0
  8 14  1  0  0  0  0
  9 27  2  0  0  0  0
  9 28  1  0  0  0  0
  9 29  1  0  0  0  0
 10 17  2  0  0  0  0
 11 25  1  0  0  0  0
 12 13  1  0  0  0  0
 12 18  1  0  0  0  0
 12 20  1  0  0  0  0
 13 17  1  0  0  0  0
 14 18  1  0  0  0  0
 14 24  1  0  0  0  0
 15 21  1  0  0  0  0
 15 26  1  0  0  0  0
 16 26  2  0  0  0  0
 17 21  1  0  0  0  0
 19 25  1  0  0  0  0
 20 24  1  0  0  0  0
M  END
>  <Original_Directory>
3rjh_A_rec_5bpc_f2a_lig_tt_docked_1_pocket10

>  <Original_Filename>
3rjh_A_rec_5bpc_f2a_lig_tt_docked_1_pocket10_gen_sample_7.sdf

>  <Molecule_ID>
sample_7

>  <logS>
-1.95461

$$$$