/tmp/tmpm6fyolxp
  MOE2022           3D

 27 29  0  0  1  0  0  0  0  0999 V2000
    1.5760   -4.4930  -25.8320 N   0  0  0  0  0  0  0  0  0  0  0  0
    1.6000   -6.2200  -28.3840 O   0  0  0  0  0  0  0  0  0  0  0  0
    0.2110   -4.8440  -26.0200 C   0  0  0  0  0  0  0  0  0  0  0  0
    2.4430   -4.8790  -24.7600 C   0  0  3  0  0  0  0  0  0  0  0  0
    0.6020   -6.9740  -27.6350 S   0  0  0  0  0  0  0  0  0  0  0  0
   -0.1670   -7.8400  -28.5080 O   0  0  0  0  0  0  0  0  0  0  0  0
    2.7510   -4.7380  -22.2840 C   0  0  0  0  0  0  0  0  0  0  0  0
   -1.7190   -6.0040  -26.9290 C   0  0  0  0  0  0  0  0  0  0  0  0
   -2.5230   -5.3840  -25.9240 C   0  0  0  0  0  0  0  0  0  0  0  0
    5.4680   -3.7160  -24.9590 O   0  0  0  0  0  0  0  0  0  0  0  0
    3.7280   -5.3400  -25.0310 C   0  0  0  0  0  0  0  0  0  0  0  0
    5.0540   -4.9420  -24.4260 C   0  0  0  0  0  0  0  0  0  0  0  0
   -0.7030   -3.8420  -25.6230 C   0  0  0  0  0  0  0  0  0  0  0  0
    6.4120   -4.7300  -22.3970 O   0  0  0  0  0  0  0  0  0  0  0  0
    4.4000   -5.7360  -20.7340 C   0  0  0  0  0  0  0  0  0  0  0  0
    2.0150   -4.6470  -23.4310 C   0  0  0  0  0  0  0  0  0  0  0  0
    4.0720   -5.0520  -22.0430 C   0  0  3  0  0  0  0  0  0  0  0  0
    1.0260   -2.3050  -26.4600 C   0  0  0  0  0  0  0  0  0  0  0  0
   -0.3390   -5.8670  -26.8280 C   0  0  0  0  0  0  0  0  0  0  0  0
    1.1590   -7.7680  -26.5500 O   0  0  0  0  0  0  0  0  0  0  0  0
   -3.6550   -5.7070  -25.6100 O   0  0  0  0  0  0  0  0  0  0  0  0
   -0.2160   -2.5040  -25.7570 C   0  0  0  0  0  0  0  0  0  0  0  0
   -0.8360   -1.4830  -25.2970 O   0  0  0  0  0  0  0  0  0  0  0  0
    6.0450   -5.8080  -24.8930 O   0  0  0  0  0  0  0  0  0  0  0  0
    5.1540   -4.7490  -22.9200 C   0  0  3  0  0  0  0  0  0  0  0  0
    1.9000   -3.3590  -26.5320 C   0  0  0  0  0  0  0  0  0  0  0  0
   -2.0140   -4.1790  -25.3470 O   0  0  0  0  0  0  0  0  0  0  0  0
  1  3  1  0  0  0  0
  1  4  1  0  0  0  0
  1 26  1  0  0  0  0
  2  5  1  0  0  0  0
  3 13  1  0  0  0  0
  3 19  2  0  0  0  0
  4 11  1  0  0  0  0
  4 16  1  0  0  0  0
  5  6  1  0  0  0  0
  5 19  1  0  0  0  0
  5 20  1  0  0  0  0
  7 16  2  0  0  0  0
  7 17  1  0  0  0  0
  8  9  1  0  0  0  0
  8 19  1  0  0  0  0
  9 21  2  0  0  0  0
  9 27  1  0  0  0  0
 10 12  1  0  0  0  0
 11 12  1  0  0  0  0
 12 24  1  0  0  0  0
 12 25  1  0  0  0  0
 13 22  2  0  0  0  0
 13 27  1  0  0  0  0
 14 25  1  0  0  0  0
 15 17  1  0  0  0  0
 17 25  1  0  0  0  0
 18 22  1  0  0  0  0
 18 26  2  0  0  0  0
 22 23  1  0  0  0  0
M  END
>  <Original_Directory>
5mex_A_rec_5mex_pap_lig_tt_docked_0_pocket10

>  <Original_Filename>
5mex_A_rec_5mex_pap_lig_tt_docked_0_pocket10_gen_sample_13.sdf

>  <Molecule_ID>
sample_13

>  <logS>
-1.9603601

$$$$