/tmp/tmpic4te10u
  MOE2022           3D

 19 22  0  0  1  0  0  0  0  0999 V2000
  -13.3670   -1.8370   20.4800 C   0  0  3  0  0  0  0  0  0  0  0  0
  -18.3660   -5.5060   14.7170 N   0  0  0  0  0  0  0  0  0  0  0  0
  -14.1690   -4.8330   18.2470 C   0  0  3  0  0  0  0  0  0  0  0  0
  -13.3100   -0.3290   20.2970 C   0  0  0  0  0  0  0  0  0  0  0  0
  -17.5420   -7.6680   14.5560 C   0  0  3  0  0  0  0  0  0  0  0  0
  -14.3260   -6.0100   16.3860 N   0  0  0  0  0  0  0  0  0  0  0  0
  -13.4890   -5.2440   17.1200 C   0  0  0  0  0  0  0  0  0  0  0  0
  -11.9860   -2.4750   20.2670 C   0  0  0  0  0  0  0  0  0  0  0  0
  -17.6670   -7.8250   13.1310 O   0  0  0  0  0  0  0  0  0  0  0  0
  -17.0630   -6.2040   14.7830 C   0  0  3  0  0  0  0  0  0  0  0  0
  -15.5470   -5.8890   16.9600 C   0  0  0  0  0  0  0  0  0  0  0  0
  -13.7240   -3.9560   19.3800 C   0  0  3  0  0  0  0  0  0  0  0  0
  -16.8010   -6.0960   16.2520 C   0  0  3  0  0  0  0  0  0  0  0  0
  -19.0820   -6.2560   15.7630 C   0  0  3  0  0  0  0  0  0  0  0  0
  -12.2300   -3.8370   19.6210 C   0  0  0  0  0  0  0  0  0  0  0  0
  -14.3210   -2.5590   19.5250 C   0  0  0  0  0  0  0  0  0  0  0  0
  -15.3830   -5.4240   18.2050 N   0  0  0  0  0  0  0  0  0  0  0  0
  -18.9650   -7.6520   15.1660 C   0  0  0  0  0  0  0  0  0  0  0  0
  -18.1210   -6.3330   16.9750 C   0  0  0  0  0  0  0  0  0  0  0  0
  1  4  1  0  0  0  0
  1  8  1  0  0  0  0
  1 16  1  0  0  0  0
  2 10  1  0  0  0  0
  2 14  1  0  0  0  0
  3  7  1  0  0  0  0
  3 12  1  0  0  0  0
  3 17  1  0  0  0  0
  5  9  1  0  0  0  0
  5 10  1  0  0  0  0
  5 18  1  0  0  0  0
  6  7  1  0  0  0  0
  6 11  2  0  0  0  0
  8 15  1  0  0  0  0
 10 13  1  0  0  0  0
 11 13  1  0  0  0  0
 11 17  1  0  0  0  0
 12 15  1  0  0  0  0
 12 16  1  0  0  0  0
 13 19  1  0  0  0  0
 14 18  1  0  0  0  0
 14 19  1  0  0  0  0
M  END
>  <Original_Directory>
4efs_A_rec_3f16_hs3_lig_tt_docked_7_pocket10

>  <Original_Filename>
4efs_A_rec_3f16_hs3_lig_tt_docked_7_pocket10_gen_sample_9.sdf

>  <Molecule_ID>
sample_9

>  <logS>
-2.2031901

$$$$