/tmp/tmpnhhaqnzo
  MOE2022           3D

 32 36  0  0  1  0  0  0  0  0999 V2000
  -30.8770   20.9020  -21.0550 C   0  0  0  0  0  0  0  0  0  0  0  0
  -24.6420   23.0860  -20.3170 N   0  0  0  0  0  0  0  0  0  0  0  0
  -29.6170   18.9190  -21.0590 O   0  0  0  0  0  0  0  0  0  0  0  0
  -20.9340   21.1920  -20.1030 C   0  0  0  0  0  0  0  0  0  0  0  0
  -22.6950   22.1410  -21.4030 C   0  0  3  0  0  0  0  0  0  0  0  0
  -28.5960   22.7190  -16.2090 C   0  0  0  0  0  0  0  0  0  0  0  0
  -25.2990   23.5850  -17.9690 C   0  0  0  0  0  0  0  0  0  0  0  0
  -27.8390   22.6750  -18.7340 C   0  0  0  0  0  0  0  0  0  0  0  0
  -28.5020   23.6100  -15.1820 O   0  0  0  0  0  0  0  0  0  0  0  0
  -28.9900   20.6770  -19.5640 C   0  0  0  0  0  0  0  0  0  0  0  0
  -24.9280   23.8560  -21.4410 C   0  0  0  0  0  0  0  0  0  0  0  0
  -27.6020   23.0370  -17.3860 C   0  0  0  0  0  0  0  0  0  0  0  0
  -21.6340   21.0930  -23.8860 C   0  0  0  0  0  0  0  0  0  0  0  0
  -23.8940   23.9050  -22.5380 C   0  0  0  0  0  0  0  0  0  0  0  0
  -26.8460   22.9080  -19.6540 C   0  0  0  0  0  0  0  0  0  0  0  0
  -25.5580   23.1930  -19.2790 C   0  0  0  0  0  0  0  0  0  0  0  0
  -29.9100   22.8520  -20.0360 C   0  0  0  0  0  0  0  0  0  0  0  0
  -26.3880   23.7150  -17.1060 C   0  0  0  0  0  0  0  0  0  0  0  0
  -23.4550   22.4460  -22.6780 C   0  0  3  0  0  0  0  0  0  0  0  0
  -21.7400   20.9610  -21.3900 C   0  0  3  0  0  0  0  0  0  0  0  0
  -30.8980   22.2680  -20.8180 C   0  0  0  0  0  0  0  0  0  0  0  0
  -21.9530   20.8160  -19.0140 C   0  0  0  0  0  0  0  0  0  0  0  0
  -26.3540   24.6450  -16.1140 O   0  0  0  0  0  0  0  0  0  0  0  0
  -20.8220   21.0120  -22.6080 C   0  0  0  0  0  0  0  0  0  0  0  0
  -23.0060   21.8500  -19.0080 N   0  0  0  0  0  0  0  0  0  0  0  0
  -28.4010   21.4510  -15.7420 O   0  0  0  0  0  0  0  0  0  0  0  0
  -29.8900   22.8780  -16.5850 O   0  0  0  0  0  0  0  0  0  0  0  0
  -23.7140   21.9430  -20.2810 C   0  0  3  0  0  0  0  0  0  0  0  0
  -28.9510   22.0690  -19.3810 C   0  0  0  0  0  0  0  0  0  0  0  0
  -29.8460   20.1390  -20.5260 C   0  0  0  0  0  0  0  0  0  0  0  0
  -25.9510   24.4910  -21.5860 O   0  0  0  0  0  0  0  0  0  0  0  0
  -22.5790   22.2730  -23.8990 C   0  0  0  0  0  0  0  0  0  0  0  0
  1 21  1  0  0  0  0
  1 30  2  0  0  0  0
  2 11  1  0  0  0  0
  2 16  1  0  0  0  0
  2 28  1  0  0  0  0
  3 30  1  0  0  0  0
  4 20  1  0  0  0  0
  4 22  1  0  0  0  0
  5 19  1  0  0  0  0
  5 20  1  0  0  0  0
  5 28  1  0  0  0  0
  6  9  1  0  0  0  0
  6 12  1  0  0  0  0
  6 26  1  0  0  0  0
  6 27  1  0  0  0  0
  7 16  1  0  0  0  0
  7 18  2  0  0  0  0
  8 12  2  0  0  0  0
  8 15  1  0  0  0  0
  8 29  1  0  0  0  0
 10 29  2  0  0  0  0
 10 30  1  0  0  0  0
 11 14  1  0  0  0  0
 11 31  2  0  0  0  0
 12 18  1  0  0  0  0
 13 24  1  0  0  0  0
 13 32  1  0  0  0  0
 14 19  1  0  0  0  0
 15 16  2  0  0  0  0
 17 21  2  0  0  0  0
 17 29  1  0  0  0  0
 18 23  1  0  0  0  0
 19 32  1  0  0  0  0
 20 24  1  0  0  0  0
 22 25  1  0  0  0  0
 25 28  1  0  0  0  0
M  END
>  <Original_Directory>
4o05_A_rec_4o05_2q9_lig_tt_docked_0_pocket10

>  <Original_Filename>
4o05_A_rec_4o05_2q9_lig_tt_docked_0_pocket10_gen_sample_5.sdf

>  <Molecule_ID>
sample_5

>  <logS>
-4.6138501

$$$$