/tmp/tmpllhlw3lh
  MOE2022           3D

 12 13  0  0  0  0  0  0  0  0999 V2000
  -15.6850    0.2760   34.1570 C   0  0  0  0  0  0  0  0  0  0  0  0
  -13.9060    2.7150   34.6150 C   0  0  0  0  0  0  0  0  0  0  0  0
  -11.0030    1.2510   36.2260 C   0  0  0  0  0  0  0  0  0  0  0  0
  -16.0120    1.5960   33.8360 C   0  0  0  0  0  0  0  0  0  0  0  0
  -13.0540    1.6910   35.0990 C   0  0  0  0  0  0  0  0  0  0  0  0
  -12.4950   -0.5230   35.8950 C   0  0  0  0  0  0  0  0  0  0  0  0
  -15.1870    2.6930   34.1490 C   0  0  0  0  0  0  0  0  0  0  0  0
  -13.4330    0.3360   35.3190 C   0  0  0  0  0  0  0  0  0  0  0  0
  -11.7400    2.0850   35.3870 C   0  0  0  0  0  0  0  0  0  0  0  0
  -10.7520   -0.7670   37.4260 O   0  0  0  0  0  0  0  0  0  0  0  0
  -11.4130   -0.0030   36.5000 N   0  0  0  0  0  0  0  0  0  0  0  0
  -14.6230   -0.2440   34.8350 C   0  0  0  0  0  0  0  0  0  0  0  0
  1  4  1  0  0  0  0
  1 12  2  0  0  0  0
  2  5  2  0  0  0  0
  2  7  1  0  0  0  0
  3  9  2  0  0  0  0
  3 11  1  0  0  0  0
  4  7  2  0  0  0  0
  5  8  1  0  0  0  0
  5  9  1  0  0  0  0
  6  8  2  0  0  0  0
  6 11  1  0  0  0  0
  8 12  1  0  0  0  0
 10 11  1  0  0  0  0
M  END
>  <Original_Directory>
3reo_A_rec_3reo_eug_lig_tt_min_0_pocket10

>  <Original_Filename>
3reo_A_rec_3reo_eug_lig_tt_min_0_pocket10_gen_sample_1.sdf

>  <Molecule_ID>
sample_1

>  <logS>
-1.5403301

$$$$