/tmp/tmpl8ocudeb
  MOE2022           3D

 23 26  0  0  1  0  0  0  0  0999 V2000
   13.2330    2.3020   10.9370 C   0  0  3  0  0  0  0  0  0  0  0  0
   12.9420    0.8470   11.3170 C   0  0  0  0  0  0  0  0  0  0  0  0
    9.6860   -3.2760   10.6500 C   0  0  0  0  0  0  0  0  0  0  0  0
   11.9600    0.1390   14.9830 C   0  0  0  0  0  0  0  0  0  0  0  0
   12.6030    0.8890   13.8250 C   0  0  3  0  0  0  0  0  0  0  0  0
   10.1960   -2.3270   11.5180 C   0  0  3  0  0  0  0  0  0  0  0  0
   13.0730    3.2900   13.2190 C   0  0  0  0  0  0  0  0  0  0  0  0
    8.4590   -3.8510   10.5510 C   0  0  0  0  0  0  0  0  0  0  0  0
   14.7540    2.5480   10.9310 C   0  0  0  0  0  0  0  0  0  0  0  0
   10.7700   -0.7830   14.8120 C   0  0  0  0  0  0  0  0  0  0  0  0
    8.5590   -2.6510   13.2700 C   0  0  0  0  0  0  0  0  0  0  0  0
    7.4810   -4.0130   11.5080 C   0  0  0  0  0  0  0  0  0  0  0  0
   12.2240    2.3670   14.0930 C   0  0  0  0  0  0  0  0  0  0  0  0
   14.0130    3.9370   13.6540 O   0  0  0  0  0  0  0  0  0  0  0  0
    7.6350   -3.5210   12.7910 C   0  0  0  0  0  0  0  0  0  0  0  0
   12.7240    3.2680   11.9120 N   0  0  0  0  0  0  0  0  0  0  0  0
   10.6070   -1.2110   13.3920 C   0  0  3  0  0  0  0  0  0  0  0  0
   11.2790   -1.5110   11.3050 N   0  0  0  0  0  0  0  0  0  0  0  0
   12.0800    0.5280   12.4660 N   0  0  0  0  0  0  0  0  0  0  0  0
   15.4940    1.5790   11.2050 O   0  0  0  0  0  0  0  0  0  0  0  0
    9.7700   -2.1600   12.8160 C   0  0  0  0  0  0  0  0  0  0  0  0
   15.1450    3.7010   10.5960 O   0  0  0  0  0  0  0  0  0  0  0  0
   11.4230   -0.7070   12.3750 C   0  0  3  0  0  0  0  0  0  0  0  0
  1  2  1  0  0  0  0
  1  9  1  0  0  0  0
  1 16  1  0  0  0  0
  2 19  1  0  0  0  0
  3  6  1  0  0  0  0
  3  8  2  0  0  0  0
  4  5  1  0  0  0  0
  4 10  1  0  0  0  0
  5 13  1  0  0  0  0
  5 19  1  0  0  0  0
  6 18  1  0  0  0  0
  6 21  1  0  0  0  0
  7 13  1  0  0  0  0
  7 14  2  0  0  0  0
  7 16  1  0  0  0  0
  8 12  1  0  0  0  0
  9 20  1  0  0  0  0
  9 22  2  0  0  0  0
 10 17  1  0  0  0  0
 11 15  1  0  0  0  0
 11 21  2  0  0  0  0
 12 15  2  0  0  0  0
 17 21  1  0  0  0  0
 17 23  1  0  0  0  0
 18 23  1  0  0  0  0
 19 23  1  0  0  0  0
M  END
>  <Original_Directory>
4ixf_X_rec_4ixf_ixf_lig_tt_min_0_pocket10

>  <Original_Filename>
4ixf_X_rec_4ixf_ixf_lig_tt_min_0_pocket10_gen_sample_16.sdf

>  <Molecule_ID>
sample_16

>  <logS>
-1.46886

$$$$