/tmp/tmphte5_gta
  MOE2022           3D

 17 19  0  0  1  0  0  0  0  0999 V2000
   17.4980   12.8330   66.0910 C   0  0  0  0  0  0  0  0  0  0  0  0
   22.4950   20.1030   69.2620 C   0  0  0  0  0  0  0  0  0  0  0  0
   18.4210   13.3040   64.9700 C   0  0  3  0  0  0  0  0  0  0  0  0
   17.6580   13.5220   63.6680 C   0  0  0  0  0  0  0  0  0  0  0  0
   19.7040   17.4770   69.1600 C   0  0  0  0  0  0  0  0  0  0  0  0
   19.1860   14.4800   65.3470 N   0  0  0  0  0  0  0  0  0  0  0  0
   19.9570   15.9610   67.1380 C   0  0  3  0  0  0  0  0  0  0  0  0
   21.4290   16.4500   66.9860 C   0  0  0  0  0  0  0  0  0  0  0  0
   21.2090   17.8240   69.0800 C   0  0  3  0  0  0  0  0  0  0  0  0
   22.7300   20.0340   67.7450 C   0  0  0  0  0  0  0  0  0  0  0  0
   19.9310   14.5090   66.6030 C   0  0  3  0  0  0  0  0  0  0  0  0
   21.3770   19.1940   69.7610 C   0  0  0  0  0  0  0  0  0  0  0  0
   18.1050   12.9000   67.4850 C   0  0  0  0  0  0  0  0  0  0  0  0
   19.4830   16.0680   68.5980 C   0  0  0  0  0  0  0  0  0  0  0  0
   21.5590   17.8580   67.5860 C   0  0  3  0  0  0  0  0  0  0  0  0
   19.5280   13.4530   67.6490 C   0  0  0  0  0  0  0  0  0  0  0  0
   22.9220   18.5460   67.3760 C   0  0  0  0  0  0  0  0  0  0  0  0
  1  3  1  0  0  0  0
  1 13  1  0  0  0  0
  2 10  1  0  0  0  0
  2 12  1  0  0  0  0
  3  4  1  0  0  0  0
  3  6  1  0  0  0  0
  5  9  1  0  0  0  0
  5 14  1  0  0  0  0
  6 11  1  0  0  0  0
  7  8  1  0  0  0  0
  7 11  1  0  0  0  0
  7 14  1  0  0  0  0
  8 15  1  0  0  0  0
  9 12  1  0  0  0  0
  9 15  1  0  0  0  0
 10 17  1  0  0  0  0
 11 16  1  0  0  0  0
 13 16  1  0  0  0  0
 15 17  1  0  0  0  0
M  END
>  <Original_Directory>
3hs6_A_rec_3q7d_npx_lig_tt_docked_5_pocket10

>  <Original_Filename>
3hs6_A_rec_3q7d_npx_lig_tt_docked_5_pocket10_gen_sample_13.sdf

>  <Molecule_ID>
sample_13

>  <logS>
-4.5720501

$$$$