/tmp/tmpff75u_ry
  MOE2022           3D

 17 18  0  0  0  0  0  0  0  0999 V2000
   17.9430   12.2360   64.5100 C   0  0  0  0  0  0  0  0  0  0  0  0
   20.1100   16.9270   68.7220 C   0  0  0  0  0  0  0  0  0  0  0  0
   21.4300   15.3140   66.8830 C   0  0  0  0  0  0  0  0  0  0  0  0
   19.1410   13.0050   64.0990 C   0  0  0  0  0  0  0  0  0  0  0  0
   22.5180   19.3920   68.0930 O   0  0  0  0  0  0  0  0  0  0  0  0
   19.6700   13.9540   64.9430 C   0  0  0  0  0  0  0  0  0  0  0  0
   21.4050   17.2650   68.2880 C   0  0  0  0  0  0  0  0  0  0  0  0
   22.2270   18.5720   70.1210 O   0  0  0  0  0  0  0  0  0  0  0  0
   17.7410   12.2050   65.9940 C   0  0  0  0  0  0  0  0  0  0  0  0
   20.0790   15.0580   67.1570 C   0  0  0  0  0  0  0  0  0  0  0  0
   22.1390   18.4810   68.8680 C   0  0  0  0  0  0  0  0  0  0  0  0
   19.4540   15.8170   68.1590 C   0  0  0  0  0  0  0  0  0  0  0  0
   18.1170   10.8940   64.1270 O   0  0  0  0  0  0  0  0  0  0  0  0
   16.7770   12.7630   63.9050 O   0  0  0  0  0  0  0  0  0  0  0  0
   22.0990   16.4060   67.4350 C   0  0  0  0  0  0  0  0  0  0  0  0
   19.3690   14.0130   66.3230 C   0  0  0  0  0  0  0  0  0  0  0  0
   18.4330   13.0930   66.8260 C   0  0  0  0  0  0  0  0  0  0  0  0
  1  4  1  0  0  0  0
  1  9  1  0  0  0  0
  1 13  1  0  0  0  0
  1 14  1  0  0  0  0
  2  7  1  0  0  0  0
  2 12  2  0  0  0  0
  3 10  2  0  0  0  0
  3 15  1  0  0  0  0
  4  6  1  0  0  0  0
  5 11  2  0  0  0  0
  6 16  2  0  0  0  0
  7 11  1  0  0  0  0
  7 15  2  0  0  0  0
  8 11  1  0  0  0  0
  9 17  2  0  0  0  0
 10 12  1  0  0  0  0
 10 16  1  0  0  0  0
 16 17  1  0  0  0  0
M  END
>  <Original_Directory>
3hs6_A_rec_3q7d_npx_lig_tt_docked_5_pocket10

>  <Original_Filename>
3hs6_A_rec_3q7d_npx_lig_tt_docked_5_pocket10_gen_sample_17.sdf

>  <Molecule_ID>
sample_17

>  <logS>
-2.03071

$$$$