/tmp/tmpmfuehmpj
  MOE2022           3D

 17 19  0  0  0  0  0  0  0  0999 V2000
   22.8970   18.9940   68.7830 C   0  0  0  0  0  0  0  0  0  0  0  0
   18.7690   12.8490   64.4640 C   0  0  0  0  0  0  0  0  0  0  0  0
   21.8580   15.7900   67.2770 C   0  0  0  0  0  0  0  0  0  0  0  0
   22.9380   17.8710   67.9460 C   0  0  0  0  0  0  0  0  0  0  0  0
   21.3180   16.7860   69.4000 C   0  0  0  0  0  0  0  0  0  0  0  0
   18.8320   13.6140   66.7460 C   0  0  0  0  0  0  0  0  0  0  0  0
   19.9480   14.3920   66.4530 C   0  0  0  0  0  0  0  0  0  0  0  0
   22.1080   16.7850   68.2220 C   0  0  0  0  0  0  0  0  0  0  0  0
   18.2590   12.8090   65.7640 C   0  0  0  0  0  0  0  0  0  0  0  0
   21.0100   18.0340   69.9570 C   0  0  0  0  0  0  0  0  0  0  0  0
   20.8290   14.8790   67.5220 C   0  0  0  0  0  0  0  0  0  0  0  0
   20.7370   15.5850   69.8190 C   0  0  0  0  0  0  0  0  0  0  0  0
   19.6570   13.8600   64.1200 C   0  0  0  0  0  0  0  0  0  0  0  0
   23.7010   19.9370   68.7850 O   0  0  0  0  0  0  0  0  0  0  0  0
   20.5620   14.5790   68.8720 C   0  0  0  0  0  0  0  0  0  0  0  0
   21.6900   19.1420   69.4880 N   0  0  0  0  0  0  0  0  0  0  0  0
   20.2050   14.6630   65.1170 C   0  0  0  0  0  0  0  0  0  0  0  0
  1  4  1  0  0  0  0
  1 14  2  0  0  0  0
  1 16  1  0  0  0  0
  2  9  2  0  0  0  0
  2 13  1  0  0  0  0
  3  8  2  0  0  0  0
  3 11  1  0  0  0  0
  4  8  1  0  0  0  0
  5  8  1  0  0  0  0
  5 10  1  0  0  0  0
  5 12  2  0  0  0  0
  6  7  2  0  0  0  0
  6  9  1  0  0  0  0
  7 11  1  0  0  0  0
  7 17  1  0  0  0  0
 10 16  1  0  0  0  0
 11 15  2  0  0  0  0
 12 15  1  0  0  0  0
 13 17  2  0  0  0  0
M  END
>  <Original_Directory>
3hs6_A_rec_3q7d_npx_lig_tt_docked_5_pocket10

>  <Original_Filename>
3hs6_A_rec_3q7d_npx_lig_tt_docked_5_pocket10_gen_sample_5.sdf

>  <Molecule_ID>
sample_5

>  <logS>
-4.1412601

$$$$