/tmp/tmpu9v6qgow
  MOE2022           3D

 25 28  0  0  1  0  0  0  0  0999 V2000
  -48.4330   77.9990   -8.3420 N   0  0  0  0  0  0  0  0  0  0  0  0
  -44.3340   75.1930  -14.0340 C   0  0  0  0  0  0  0  0  0  0  0  0
  -46.1470   78.4040  -10.2140 C   0  0  0  0  0  0  0  0  0  0  0  0
  -47.3170   77.2130   -8.3400 C   0  0  3  0  0  0  0  0  0  0  0  0
  -46.1990   73.9920  -17.6850 C   0  0  0  0  0  0  0  0  0  0  0  0
  -45.1210   78.4950  -11.1450 C   0  0  0  0  0  0  0  0  0  0  0  0
  -45.3990   76.2300   -9.6020 C   0  0  0  0  0  0  0  0  0  0  0  0
  -44.4520   74.8500  -15.5280 C   0  0  3  0  0  0  0  0  0  0  0  0
  -45.2510   77.4290  -14.4900 N   0  0  0  0  0  0  0  0  0  0  0  0
  -44.1360   76.6920  -13.8920 C   0  0  3  0  0  0  0  0  0  0  0  0
  -47.7530   76.6080   -5.9610 C   0  0  0  0  0  0  0  0  0  0  0  0
  -49.2130   76.9950   -6.2460 C   0  0  3  0  0  0  0  0  0  0  0  0
  -45.1970   77.1810  -15.9390 C   0  0  0  0  0  0  0  0  0  0  0  0
  -45.1700   73.0260  -17.0940 C   0  0  0  0  0  0  0  0  0  0  0  0
  -44.3630   76.3290  -10.5210 C   0  0  0  0  0  0  0  0  0  0  0  0
  -50.0080   79.0980   -7.1170 O   0  0  0  0  0  0  0  0  0  0  0  0
  -45.6510   75.3720  -17.5810 N   0  0  0  0  0  0  0  0  0  0  0  0
  -44.3330   77.3830  -11.4190 C   0  0  0  0  0  0  0  0  0  0  0  0
  -43.5010   77.2990  -12.6710 C   0  0  0  0  0  0  0  0  0  0  0  0
  -44.8690   73.3770  -15.6390 C   0  0  0  0  0  0  0  0  0  0  0  0
  -46.2740   77.2910   -9.3890 C   0  0  0  0  0  0  0  0  0  0  0  0
  -49.2310   78.1670   -7.2290 C   0  0  0  0  0  0  0  0  0  0  0  0
  -45.6030   75.7060  -16.1280 C   0  0  3  0  0  0  0  0  0  0  0  0
  -49.8330   77.3560   -5.0070 O   0  0  0  0  0  0  0  0  0  0  0  0
  -47.1770   76.1350   -7.2830 C   0  0  0  0  0  0  0  0  0  0  0  0
  1  4  1  0  0  0  0
  1 22  1  0  0  0  0
  2  8  1  0  0  0  0
  2 10  1  0  0  0  0
  3  6  1  0  0  0  0
  3 21  2  0  0  0  0
  4 21  1  0  0  0  0
  4 25  1  0  0  0  0
  5 14  1  0  0  0  0
  5 17  1  0  0  0  0
  6 18  2  0  0  0  0
  7 15  2  0  0  0  0
  7 21  1  0  0  0  0
  8 20  1  0  0  0  0
  8 23  1  0  0  0  0
  9 10  1  0  0  0  0
  9 13  1  0  0  0  0
 10 19  1  0  0  0  0
 11 12  1  0  0  0  0
 11 25  1  0  0  0  0
 12 22  1  0  0  0  0
 12 24  1  0  0  0  0
 13 23  1  0  0  0  0
 14 20  1  0  0  0  0
 15 18  1  0  0  0  0
 16 22  2  0  0  0  0
 17 23  1  0  0  0  0
 18 19  1  0  0  0  0
M  END
>  <Original_Directory>
3rad_D_rec_3rad_nfx_lig_tt_min_0_pocket10

>  <Original_Filename>
3rad_D_rec_3rad_nfx_lig_tt_min_0_pocket10_gen_sample_10.sdf

>  <Molecule_ID>
sample_10

>  <logS>
-2.42908

$$$$