/tmp/tmp27j1xxj4
  MOE2022           3D

 12 14  0  0  1  0  0  0  0  0999 V2000
   81.2450  -43.0590   24.2110 N   0  0  0  0  0  0  0  0  0  0  0  0
   83.9720  -45.5100   24.9080 C   0  0  0  0  0  0  0  0  0  0  0  0
   83.7950  -46.3550   23.7730 C   0  0  0  0  0  0  0  0  0  0  0  0
   80.9230  -42.5280   22.8420 C   0  0  3  0  0  0  0  0  0  0  0  0
   82.6100  -43.5590   24.1560 C   0  0  0  0  0  0  0  0  0  0  0  0
   80.1600  -43.6210   22.0640 C   0  0  0  0  0  0  0  0  0  0  0  0
   83.2460  -44.3350   25.1820 N   0  0  0  0  0  0  0  0  0  0  0  0
   82.2770  -42.4240   22.1280 C   0  0  0  0  0  0  0  0  0  0  0  0
   83.0080  -43.6480   22.6950 C   0  0  3  0  0  0  0  0  0  0  0  0
   82.9190  -46.2450   22.6410 C   0  0  0  0  0  0  0  0  0  0  0  0
   82.3820  -44.9360   22.1310 C   0  0  3  0  0  0  0  0  0  0  0  0
   80.8840  -44.9350   21.8640 C   0  0  0  0  0  0  0  0  0  0  0  0
  1  4  1  0  0  0  0
  1  5  2  0  0  0  0
  2  3  2  0  0  0  0
  2  7  1  0  0  0  0
  3 10  1  0  0  0  0
  4  6  1  0  0  0  0
  4  8  1  0  0  0  0
  5  7  1  0  0  0  0
  5  9  1  0  0  0  0
  6 12  2  0  0  0  0
  8  9  1  0  0  0  0
  9 11  1  0  0  0  0
 10 11  1  0  0  0  0
 11 12  1  0  0  0  0
M  END
>  <Original_Directory>
4bdb_A_rec_4bde_cws_lig_tt_min_0_pocket10

>  <Original_Filename>
4bdb_A_rec_4bde_cws_lig_tt_min_0_pocket10_gen_sample_9.sdf

>  <Molecule_ID>
sample_9

>  <logS>
-0.67944002

$$$$