/tmp/tmpy8sdjgwj
  MOE2022           3D

 17 18  0  0  1  0  0  0  0  0999 V2000
   -6.7020  -20.2900   -2.2510 O   0  0  0  0  0  0  0  0  0  0  0  0
   -4.1030  -22.0550   -4.3940 C   0  0  2  0  0  0  0  0  0  0  0  0
   -3.2510  -22.6540   -3.2640 C   0  0  0  0  0  0  0  0  0  0  0  0
   -4.8290  -21.7740   -1.4740 C   0  0  0  0  0  0  0  0  0  0  0  0
   -3.9750  -22.9320   -1.9460 C   0  0  0  0  0  0  0  0  0  0  0  0
   -5.8310  -25.7240   -8.6600 O   0  0  0  0  0  0  0  0  0  0  0  0
   -5.4980  -21.6720   -3.9310 C   0  0  0  0  0  0  0  0  0  0  0  0
   -5.5220  -21.0060   -2.5710 C   0  0  3  0  0  0  0  0  0  0  0  0
   -4.1070  -22.9670   -5.6210 C   0  0  0  0  0  0  0  0  0  0  0  0
   -5.0060  -24.9780   -7.8720 C   0  0  0  0  0  0  0  0  0  0  0  0
   -3.0440  -23.8440   -5.7960 C   0  0  0  0  0  0  0  0  0  0  0  0
   -2.9790  -25.0650   -6.4500 C   0  0  0  0  0  0  0  0  0  0  0  0
   -5.0560  -22.7970   -6.6360 C   0  0  0  0  0  0  0  0  0  0  0  0
   -3.8830  -25.6480   -7.3200 C   0  0  0  0  0  0  0  0  0  0  0  0
   -6.5190  -21.7280   -4.5910 O   0  0  0  0  0  0  0  0  0  0  0  0
   -5.3380  -23.6290   -7.7030 C   0  0  0  0  0  0  0  0  0  0  0  0
   -3.4980  -20.8200   -4.7570 O   0  0  0  0  0  0  0  0  0  0  0  0
  1  8  1  0  0  0  0
  2  3  1  0  0  0  0
  2  7  1  0  0  0  0
  2  9  1  0  0  0  0
  2 17  1  0  0  0  0
  3  5  1  0  0  0  0
  4  5  1  0  0  0  0
  4  8  1  0  0  0  0
  6 10  1  0  0  0  0
  7  8  1  0  0  0  0
  7 15  2  0  0  0  0
  9 11  1  0  0  0  0
  9 13  2  0  0  0  0
 10 14  1  0  0  0  0
 10 16  2  0  0  0  0
 11 12  1  0  0  0  0
 12 14  2  0  0  0  0
 13 16  1  0  0  0  0
M  END
>  <Original_Directory>
4fxa_A_rec_5cso_ctn_lig_tt_min_0_pocket10

>  <Original_Filename>
4fxa_A_rec_5cso_ctn_lig_tt_min_0_pocket10_gen_sample_19.sdf

>  <Molecule_ID>
sample_19

>  <logS>
-1.5028501

$$$$