/tmp/tmpp_3gupg8
  MOE2022           3D

 10 11  0  0  1  0  0  0  0  0999 V2000
   12.9400    8.6520    8.1190 C   0  0  3  0  0  0  0  0  0  0  0  0
   14.6170    8.3150    9.7750 O   0  0  0  0  0  0  0  0  0  0  0  0
   14.6430   10.2790    8.5540 C   0  0  3  0  0  0  0  0  0  0  0  0
   14.4700    6.7520    7.9890 O   0  0  0  0  0  0  0  0  0  0  0  0
   12.0170    8.1360    9.0750 O   0  0  0  0  0  0  0  0  0  0  0  0
   14.3500    8.1020    8.3690 C   0  0  1  0  0  0  0  0  0  0  0  0
   15.2200    9.1390    7.6960 C   0  0  0  0  0  0  0  0  0  0  0  0
   14.8680    9.7120    9.9120 C   0  0  0  0  0  0  0  0  0  0  0  0
   15.3520   10.1970   10.8870 O   0  0  0  0  0  0  0  0  0  0  0  0
   13.1400   10.1600    8.3690 C   0  0  0  0  0  0  0  0  0  0  0  0
  1  5  1  0  0  0  0
  1  6  1  0  0  0  0
  1 10  1  0  0  0  0
  2  6  1  0  0  0  0
  2  8  1  0  0  0  0
  3  7  1  0  0  0  0
  3  8  1  0  0  0  0
  3 10  1  0  0  0  0
  4  6  1  0  0  0  0
  6  7  1  0  0  0  0
  8  9  2  0  0  0  0
M  END
>  <Original_Directory>
4mul_A_rec_1n2j_paf_lig_tt_docked_7_pocket10

>  <Original_Filename>
4mul_A_rec_1n2j_paf_lig_tt_docked_7_pocket10_gen_sample_15.sdf

>  <Molecule_ID>
sample_15

>  <logS>
-0.10729

$$$$