/tmp/tmpyeslo2bl
  MOE2022           3D

 10 11  0  0  1  0  0  0  0  0999 V2000
   13.7710    8.6890    6.7810 C   0  0  3  0  0  0  0  0  0  0  0  0
   15.9670    8.4460    8.2220 C   0  0  0  0  0  0  0  0  0  0  0  0
   15.7380    9.6650    9.0600 C   0  0  0  0  0  0  0  0  0  0  0  0
   14.0820   11.0460    7.7930 C   0  0  3  0  0  0  0  0  0  0  0  0
   15.1190    7.9850    7.0750 C   0  0  0  0  0  0  0  0  0  0  0  0
   13.2530    9.1530    9.2580 C   0  0  0  0  0  0  0  0  0  0  0  0
   14.3270   10.2560    9.1050 C   0  0  3  0  0  0  0  0  0  0  0  0
   12.8050   11.6500    7.9570 O   0  0  0  0  0  0  0  0  0  0  0  0
   14.0560   10.1860    6.5200 C   0  0  0  0  0  0  0  0  0  0  0  0
   12.7830    8.5220    7.9510 C   0  0  0  0  0  0  0  0  0  0  0  0
  1  5  1  0  0  0  0
  1  9  1  0  0  0  0
  1 10  1  0  0  0  0
  2  3  1  0  0  0  0
  2  5  2  0  0  0  0
  3  7  1  0  0  0  0
  4  7  1  0  0  0  0
  4  8  1  0  0  0  0
  4  9  1  0  0  0  0
  6  7  1  0  0  0  0
  6 10  1  0  0  0  0
M  END
>  <Original_Directory>
4mul_A_rec_1n2j_paf_lig_tt_docked_7_pocket10

>  <Original_Filename>
4mul_A_rec_1n2j_paf_lig_tt_docked_7_pocket10_gen_sample_7.sdf

>  <Molecule_ID>
sample_7

>  <logS>
-0.82498997

$$$$