/tmp/tmp9x6b6j9e
  MOE2022           3D

 10 10  0  0  1  0  0  0  0  0999 V2000
   12.8870   10.1380    9.4870 C   0  0  0  0  0  0  0  0  0  0  0  0
   14.9270    6.7150    9.5210 O   0  0  0  0  0  0  0  0  0  0  0  0
   14.7840    9.3140    6.8680 C   0  0  0  0  0  0  0  0  0  0  0  0
   14.6330    8.0780    7.5780 C   0  0  3  0  0  0  0  0  0  0  0  0
   14.0230    7.0820    6.9840 O   0  0  0  0  0  0  0  0  0  0  0  0
   14.8900    7.9490    9.0260 C   0  0  3  0  0  0  0  0  0  0  0  0
   13.9490   10.4040    7.1610 C   0  0  0  0  0  0  0  0  0  0  0  0
   12.9430   10.3820    8.1390 C   0  0  0  0  0  0  0  0  0  0  0  0
   15.0680    9.0340    9.9300 C   0  0  0  0  0  0  0  0  0  0  0  0
   13.9320    9.7850   10.3820 C   0  0  0  0  0  0  0  0  0  0  0  0
  1  8  2  0  0  0  0
  1 10  1  0  0  0  0
  2  6  1  0  0  0  0
  3  4  1  0  0  0  0
  3  7  2  0  0  0  0
  4  5  1  0  0  0  0
  4  6  1  0  0  0  0
  6  9  1  0  0  0  0
  7  8  1  0  0  0  0
  9 10  1  0  0  0  0
M  END
>  <Original_Directory>
4mul_A_rec_1n2j_paf_lig_tt_docked_7_pocket10

>  <Original_Filename>
4mul_A_rec_1n2j_paf_lig_tt_docked_7_pocket10_gen_sample_1.sdf

>  <Molecule_ID>
sample_1

>  <logS>
-0.42963001

$$$$