/tmp/tmpz9o925go
  MOE2022           3D

 25 26  0  0  1  0  0  0  0  0999 V2000
  -15.8170   -1.3530   14.6520 C   0  0  2  0  0  0  0  0  0  0  0  0
  -16.4140   -3.9140   17.4280 O   0  0  0  0  0  0  0  0  0  0  0  0
  -15.8790    0.1260   14.6760 C   0  0  3  0  0  0  0  0  0  0  0  0
  -18.4710   -1.4760   16.9170 O   0  0  0  0  0  0  0  0  0  0  0  0
  -15.4810   -2.3720   13.5470 O   0  0  0  0  0  0  0  0  0  0  0  0
  -17.3060   -4.4220   16.3640 O   0  0  0  0  0  0  0  0  0  0  0  0
  -15.4610   -1.0320   14.8020 C   0  0  0  0  0  0  0  0  0  0  0  0
  -16.4820   -3.9860   14.4000 O   0  0  0  0  0  0  0  0  0  0  0  0
  -17.2240   -1.6390   15.3410 P   0  0  0  0  0  0  0  0  0  0  0  0
  -18.5860   -2.2060   15.1130 C   0  0  0  0  0  0  0  0  0  0  0  0
  -18.1500   -2.1750   17.4650 N   0  0  0  0  0  0  0  0  0  0  0  0
  -16.7720    0.2530   14.6140 O   0  0  0  0  0  0  0  0  0  0  0  0
  -17.3800   -2.7670   13.5840 O   0  0  0  0  0  0  0  0  0  0  0  0
  -18.1050   -3.5550   17.2750 F   0  0  0  0  0  0  0  0  0  0  0  0
  -15.2280   -2.1010   15.6760 O   0  0  0  0  0  0  0  0  0  0  0  0
  -15.5800   -2.5400   14.3430 C   0  0  0  0  0  0  0  0  0  0  0  0
  -16.7690   -4.2630   15.1860 O   0  0  0  0  0  0  0  0  0  0  0  0
  -18.0030   -0.4590   14.5280 O   0  0  0  0  0  0  0  0  0  0  0  0
  -17.0530   -1.2250   14.0300 C   0  0  2  0  0  0  0  0  0  0  0  0
  -15.7670   -1.9710   16.4770 N   0  0  0  0  0  0  0  0  0  0  0  0
  -16.7910   -2.4930   17.8550 O   0  0  0  0  0  0  0  0  0  0  0  0
  -16.3480   -0.6140   13.1770 O   0  0  0  0  0  0  0  0  0  0  0  0
  -17.7300   -2.8510   14.2250 O   0  0  0  0  0  0  0  0  0  0  0  0
  -16.7830   -0.0030   15.4280 F   0  0  0  0  0  0  0  0  0  0  0  0
  -18.7610   -1.6150   14.9190 C   0  0  0  0  0  0  0  0  0  0  0  0
  1  7  1  0  0  0  0
  1 15  1  0  0  0  0
  1 16  1  0  0  0  0
  1 19  1  0  0  0  0
  2  6  1  0  0  0  0
  2 21  1  0  0  0  0
  3  7  1  0  0  0  0
  3 12  1  0  0  0  0
  3 22  1  0  0  0  0
  4  9  1  0  0  0  0
  4 11  1  0  0  0  0
  5 16  1  0  0  0  0
  6 17  1  0  0  0  0
  8 17  1  0  0  0  0
  9 19  1  0  0  0  0
  9 20  1  0  0  0  0
 10 23  1  0  0  0  0
 10 25  1  0  0  0  0
 11 14  1  0  0  0  0
 11 21  1  0  0  0  0
 12 24  1  0  0  0  0
 13 23  1  0  0  0  0
 15 20  1  0  0  0  0
 18 19  1  0  0  0  0
 18 25  1  0  0  0  0
 19 22  1  0  0  0  0
M  END
>  <Original_Directory>
1ros_A_rec_4h76_10b_lig_tt_min_0_pocket10

>  <Original_Filename>
1ros_A_rec_4h76_10b_lig_tt_min_0_pocket10_gen_sample_10.sdf

>  <Molecule_ID>
sample_10

>  <logS>
-2.1830699

$$$$