/tmp/tmp623yy1f_
  MOE2022           3D

 21 23  0  0  1  0  0  0  0  0999 V2000
  -28.0170    8.5320   15.7710 C   0  0  2  0  0  0  0  0  0  0  0  0
  -29.2460    9.8930   17.6900 C   0  0  0  0  0  0  0  0  0  0  0  0
  -26.5930   10.6440   18.1960 C   0  0  0  0  0  0  0  0  0  0  0  0
  -27.2980    7.3880   16.2260 O   0  0  0  0  0  0  0  0  0  0  0  0
  -22.1540   10.7530   17.8970 C   0  0  0  0  0  0  0  0  0  0  0  0
  -28.9350   10.6070   18.8470 C   0  0  0  0  0  0  0  0  0  0  0  0
  -28.2020    9.5160   16.8760 C   0  0  0  0  0  0  0  0  0  0  0  0
  -27.0350   10.3080   16.9270 C   0  0  0  0  0  0  0  0  0  0  0  0
  -24.6940   11.1680   19.7180 C   0  0  3  0  0  0  0  0  0  0  0  0
  -23.2920   11.5590   19.8920 C   0  0  0  0  0  0  0  0  0  0  0  0
  -22.8840   11.8910   21.0120 O   0  0  0  0  0  0  0  0  0  0  0  0
  -25.4730   11.3650   20.7830 O   0  0  0  0  0  0  0  0  0  0  0  0
  -24.3940    9.7090   17.8070 C   0  0  0  0  0  0  0  0  0  0  0  0
  -26.3480   10.1750   15.7720 N   0  0  0  0  0  0  0  0  0  0  0  0
  -27.6000   10.8800   19.1320 C   0  0  0  0  0  0  0  0  0  0  0  0
  -29.2850    8.1500   15.0340 C   0  0  0  0  0  0  0  0  0  0  0  0
  -22.4820   11.7030   18.8150 N   0  0  0  0  0  0  0  0  0  0  0  0
  -21.0540   10.8420   17.3300 O   0  0  0  0  0  0  0  0  0  0  0  0
  -27.1350    9.3840   14.8340 C   0  0  0  0  0  0  0  0  0  0  0  0
  -23.0750    9.7590   17.5410 C   0  0  0  0  0  0  0  0  0  0  0  0
  -25.2150   10.5340   18.5700 C   0  0  3  0  0  0  0  0  0  0  0  0
  1  4  1  0  0  0  0
  1  7  1  0  0  0  0
  1 16  1  0  0  0  0
  1 19  1  0  0  0  0
  2  6  1  0  0  0  0
  2  7  2  0  0  0  0
  3  8  2  0  0  0  0
  3 15  1  0  0  0  0
  3 21  1  0  0  0  0
  5 17  1  0  0  0  0
  5 18  2  0  0  0  0
  5 20  1  0  0  0  0
  6 15  2  0  0  0  0
  7  8  1  0  0  0  0
  8 14  1  0  0  0  0
  9 10  1  0  0  0  0
  9 12  1  0  0  0  0
  9 21  1  0  0  0  0
 10 11  2  0  0  0  0
 10 17  1  0  0  0  0
 13 20  2  0  0  0  0
 13 21  1  0  0  0  0
 14 19  1  0  0  0  0
M  END
>  <Original_Directory>
1e9f_A_rec_1e9c_tmp_lig_tt_docked_9_pocket10

>  <Original_Filename>
1e9f_A_rec_1e9c_tmp_lig_tt_docked_9_pocket10_gen_sample_14.sdf

>  <Molecule_ID>
sample_14

>  <logS>
-2.3499999

$$$$