/tmp/tmprylonwel
  MOE2022           3D

 17 19  0  0  1  0  0  0  0  0999 V2000
   24.2010   57.1680   17.5660 N   0  0  0  0  0  0  0  0  0  0  0  0
   24.0250   54.9240   16.9890 C   0  0  0  0  0  0  0  0  0  0  0  0
   22.6910   56.2650   10.3350 C   0  0  0  0  0  0  0  0  0  0  0  0
   23.9310   53.5230   14.9540 C   0  0  0  0  0  0  0  0  0  0  0  0
   23.5830   55.9060   14.0090 C   0  0  0  0  0  0  0  0  0  0  0  0
   23.9950   56.2860   16.5540 C   0  0  3  0  0  0  0  0  0  0  0  0
   23.1630   58.4640   11.2980 C   0  0  0  0  0  0  0  0  0  0  0  0
   23.0970   57.9510   12.6080 C   0  0  0  0  0  0  0  0  0  0  0  0
   23.9470   58.2790   14.9780 C   0  0  0  0  0  0  0  0  0  0  0  0
   22.5770   55.7290   11.6470 C   0  0  0  0  0  0  0  0  0  0  0  0
   23.0150   57.6270   10.1740 C   0  0  0  0  0  0  0  0  0  0  0  0
   23.0640   58.8370   13.8490 C   0  0  0  0  0  0  0  0  0  0  0  0
   23.0140   56.5160   12.7930 C   0  0  0  0  0  0  0  0  0  0  0  0
   23.8700   54.5100   13.9860 C   0  0  0  0  0  0  0  0  0  0  0  0
   22.0080   54.5180   11.8370 O   0  0  0  0  0  0  0  0  0  0  0  0
   23.8270   56.7640   15.1700 C   0  0  0  0  0  0  0  0  0  0  0  0
   23.7770   53.7100   16.3520 C   0  0  0  0  0  0  0  0  0  0  0  0
  1  6  1  0  0  0  0
  2  6  1  0  0  0  0
  2 17  2  0  0  0  0
  3 10  2  0  0  0  0
  3 11  1  0  0  0  0
  4 14  2  0  0  0  0
  4 17  1  0  0  0  0
  5 13  1  0  0  0  0
  5 14  1  0  0  0  0
  5 16  2  0  0  0  0
  6 16  1  0  0  0  0
  7  8  1  0  0  0  0
  7 11  2  0  0  0  0
  8 12  1  0  0  0  0
  8 13  2  0  0  0  0
  9 12  1  0  0  0  0
  9 16  1  0  0  0  0
 10 13  1  0  0  0  0
 10 15  1  0  0  0  0
M  END
>  <Original_Directory>
2ycz_A_rec_2y04_68h_lig_tt_docked_2_pocket10

>  <Original_Filename>
2ycz_A_rec_2y04_68h_lig_tt_docked_2_pocket10_gen_sample_17.sdf

>  <Molecule_ID>
sample_17

>  <logS>
-2.7525699

$$$$