/tmp/tmpgglmrrpt
  MOE2022           3D

 17 18  0  0  0  0  0  0  0  0999 V2000
   13.6290    1.1400    0.8710 O   0  0  0  0  0  0  0  0  0  0  0  0
   15.6040    2.9240   -0.8990 N   0  0  0  0  0  0  0  0  0  0  0  0
   13.8400    5.6530    2.0680 C   0  0  0  0  0  0  0  0  0  0  0  0
   14.8820    6.4140    2.5840 C   0  0  0  0  0  0  0  0  0  0  0  0
   16.0730   -1.4550    3.6780 O   0  0  0  0  0  0  0  0  0  0  0  0
   18.5200   -0.4400    2.7470 O   0  0  0  0  0  0  0  0  0  0  0  0
   15.0650   -0.5690    1.7120 C   0  0  0  0  0  0  0  0  0  0  0  0
   15.4160    4.0380    1.2590 C   0  0  0  0  0  0  0  0  0  0  0  0
   16.4330    4.7110    1.9290 C   0  0  0  0  0  0  0  0  0  0  0  0
   15.9590    1.5790    1.1070 C   0  0  0  0  0  0  0  0  0  0  0  0
   17.1860    1.2520    1.6770 C   0  0  0  0  0  0  0  0  0  0  0  0
   16.1870    5.9660    2.4650 C   0  0  0  0  0  0  0  0  0  0  0  0
   15.7710    2.8790    0.3800 C   0  0  0  0  0  0  0  0  0  0  0  0
   16.1940   -0.7810    2.4920 C   0  0  0  0  0  0  0  0  0  0  0  0
   14.1000    4.4440    1.4410 C   0  0  0  0  0  0  0  0  0  0  0  0
   17.3100    0.0200    2.2910 C   0  0  0  0  0  0  0  0  0  0  0  0
   14.8750    0.7190    1.2350 C   0  0  0  0  0  0  0  0  0  0  0  0
  1 17  1  0  0  0  0
  2 13  2  0  0  0  0
  3  4  1  0  0  0  0
  3 15  2  0  0  0  0
  4 12  2  0  0  0  0
  5 14  1  0  0  0  0
  6 16  1  0  0  0  0
  7 14  2  0  0  0  0
  7 17  1  0  0  0  0
  8  9  2  0  0  0  0
  8 13  1  0  0  0  0
  8 15  1  0  0  0  0
  9 12  1  0  0  0  0
 10 11  1  0  0  0  0
 10 13  1  0  0  0  0
 10 17  2  0  0  0  0
 11 16  2  0  0  0  0
 14 16  1  0  0  0  0
M  END
>  <Original_Directory>
4u86_A_rec_2xp7_4f8_lig_tt_docked_3_pocket10

>  <Original_Filename>
4u86_A_rec_2xp7_4f8_lig_tt_docked_3_pocket10_gen_sample_13.sdf

>  <Molecule_ID>
sample_13

>  <logS>
-2.5725999

$$$$