/tmp/tmp119r14ei
  MOE2022           3D

 32 36  0  0  1  0  0  0  0  0999 V2000
   -4.3390   14.4130   15.9270 C   0  0  0  0  0  0  0  0  0  0  0  0
    1.9330   15.4330   11.2820 C   0  0  0  0  0  0  0  0  0  0  0  0
   -0.1980   13.0090   13.8110 N   0  0  0  0  0  0  0  0  0  0  0  0
   -6.8300   13.9650   17.4320 O   0  0  0  0  0  0  0  0  0  0  0  0
    2.6390   14.9430   12.3780 C   0  0  0  0  0  0  0  0  0  0  0  0
   -9.2440   14.8030   14.3530 C   0  0  3  0  0  0  0  0  0  0  0  0
    0.7060   13.6930   13.0450 C   0  0  0  0  0  0  0  0  0  0  0  0
   -3.9560   10.5570   12.4360 N   0  0  0  0  0  0  0  0  0  0  0  0
   -1.3700   12.9280   13.1640 C   0  0  3  0  0  0  0  0  0  0  0  0
   -3.4240   12.7240   14.6820 C   0  0  0  0  0  0  0  0  0  0  0  0
    0.4110   14.7380    9.5450 O   0  0  0  0  0  0  0  0  0  0  0  0
   -3.2470   14.0430   15.1470 C   0  0  0  0  0  0  0  0  0  0  0  0
   -9.6090   15.2830   11.4710 C   0  0  0  0  0  0  0  0  0  0  0  0
    0.0680   14.0210   11.8380 C   0  0  0  0  0  0  0  0  0  0  0  0
   -8.4000   12.6460   13.1410 C   0  0  0  0  0  0  0  0  0  0  0  0
    0.7620   14.7550   10.8670 C   0  0  0  0  0  0  0  0  0  0  0  0
   -6.6680   13.4460   16.3200 C   0  0  0  0  0  0  0  0  0  0  0  0
    2.0350   14.0460   13.2670 C   0  0  0  0  0  0  0  0  0  0  0  0
  -10.3130   14.1350   12.2100 C   0  0  3  0  0  0  0  0  0  0  0  0
   -1.7840   10.0890   12.7000 O   0  0  0  0  0  0  0  0  0  0  0  0
  -10.5960   14.5110   13.6780 C   0  0  0  0  0  0  0  0  0  0  0  0
   -2.5240   12.1210   13.6410 C   0  0  0  0  0  0  0  0  0  0  0  0
   -9.0490   16.4020   12.3300 C   0  0  0  0  0  0  0  0  0  0  0  0
   -2.7430   10.8370   12.9060 C   0  0  0  0  0  0  0  0  0  0  0  0
   -8.3940   13.5000   14.3920 C   0  0  3  0  0  0  0  0  0  0  0  0
   -5.2370   13.3130   15.8910 C   0  0  3  0  0  0  0  0  0  0  0  0
   -1.2670   13.5430   11.9320 C   0  0  0  0  0  0  0  0  0  0  0  0
    2.1010   16.7290   10.8960 O   0  0  0  0  0  0  0  0  0  0  0  0
   -9.5220   12.8360   12.1280 C   0  0  0  0  0  0  0  0  0  0  0  0
   -8.4730   15.9370   13.6660 C   0  0  0  0  0  0  0  0  0  0  0  0
   -7.8390   13.0410   15.5130 C   0  0  0  0  0  0  0  0  0  0  0  0
   -4.5780   12.2230   15.2980 C   0  0  0  0  0  0  0  0  0  0  0  0
  1 12  1  0  0  0  0
  1 26  1  0  0  0  0
  2  5  1  0  0  0  0
  2 16  2  0  0  0  0
  2 28  1  0  0  0  0
  3  7  2  0  0  0  0
  3  9  1  0  0  0  0
  4 17  2  0  0  0  0
  5 18  2  0  0  0  0
  6 21  1  0  0  0  0
  6 25  1  0  0  0  0
  6 30  1  0  0  0  0
  7 14  1  0  0  0  0
  7 18  1  0  0  0  0
  8 24  1  0  0  0  0
  9 22  1  0  0  0  0
  9 27  1  0  0  0  0
 10 12  1  0  0  0  0
 10 22  2  0  0  0  0
 10 32  1  0  0  0  0
 11 16  1  0  0  0  0
 13 19  1  0  0  0  0
 13 23  1  0  0  0  0
 14 16  1  0  0  0  0
 14 27  2  0  0  0  0
 15 25  1  0  0  0  0
 15 29  1  0  0  0  0
 17 26  1  0  0  0  0
 17 31  1  0  0  0  0
 19 21  1  0  0  0  0
 19 29  1  0  0  0  0
 20 24  2  0  0  0  0
 22 24  1  0  0  0  0
 23 30  1  0  0  0  0
 25 31  1  0  0  0  0
 26 32  1  0  0  0  0
M  END
>  <Original_Directory>
5k8x_B_rec_5lkj_6yb_lig_tt_min_0_pocket10

>  <Original_Filename>
5k8x_B_rec_5lkj_6yb_lig_tt_min_0_pocket10_gen_sample_16.sdf

>  <Molecule_ID>
sample_16

>  <logS>
-6.6356502

$$$$