/tmp/tmp1adq7upv
  MOE2022           3D

 28 33  0  0  1  0  0  0  0  0999 V2000
  -19.2110   86.6510  -63.0620 O   0  0  0  0  0  0  0  0  0  0  0  0
  -22.2530   89.1920  -62.3280 N   0  0  0  0  0  0  0  0  0  0  0  0
  -30.3790   91.3170  -59.8740 C   0  0  0  0  0  0  0  0  0  0  0  0
  -22.7360   87.8920  -64.7280 C   0  0  3  0  0  0  0  0  0  0  0  0
  -29.9550   93.6120  -62.1740 C   0  0  0  0  0  0  0  0  0  0  0  0
  -24.8020   90.4940  -61.3100 C   0  0  3  0  0  0  0  0  0  0  0  0
  -24.6540   92.6750  -63.3980 C   0  0  0  0  0  0  0  0  0  0  0  0
  -20.6270   86.6950  -64.9860 C   0  0  0  0  0  0  0  0  0  0  0  0
  -30.5420   93.6310  -60.9040 C   0  0  0  0  0  0  0  0  0  0  0  0
  -22.1620   86.5110  -64.9480 C   0  0  0  0  0  0  0  0  0  0  0  0
  -28.7450   93.0390  -62.5370 C   0  0  0  0  0  0  0  0  0  0  0  0
  -23.0390   89.8590  -61.4720 C   0  0  2  0  0  0  0  0  0  0  0  0
  -29.8450   90.4570  -60.8860 C   0  0  0  0  0  0  0  0  0  0  0  0
  -20.1670   89.4280  -61.3190 O   0  0  0  0  0  0  0  0  0  0  0  0
  -23.7120   90.9710  -61.9920 C   0  0  3  0  0  0  0  0  0  0  0  0
  -26.0660   90.9690  -61.2620 N   0  0  0  0  0  0  0  0  0  0  0  0
  -30.8110   92.6160  -59.9890 C   0  0  0  0  0  0  0  0  0  0  0  0
  -20.9910   88.9470  -62.0680 C   0  0  0  0  0  0  0  0  0  0  0  0
  -28.8970   90.6170  -61.8320 C   0  0  0  0  0  0  0  0  0  0  0  0
  -20.2630   87.0020  -63.5450 C   0  0  0  0  0  0  0  0  0  0  0  0
  -22.1710   88.6060  -63.5630 C   0  0  3  0  0  0  0  0  0  0  0  0
  -24.1220   89.4600  -60.7810 N   0  0  0  0  0  0  0  0  0  0  0  0
  -25.9670   92.3400  -63.2220 C   0  0  0  0  0  0  0  0  0  0  0  0
  -26.6790   91.6950  -62.2180 C   0  0  3  0  0  0  0  0  0  0  0  0
  -24.1400   87.9370  -64.5750 O   0  0  0  0  0  0  0  0  0  0  0  0
  -28.1550   91.7960  -62.1950 C   0  0  3  0  0  0  0  0  0  0  0  0
  -20.9020   88.2230  -63.1510 N   0  0  0  0  0  0  0  0  0  0  0  0
  -23.5500   92.0030  -62.9100 C   0  0  0  0  0  0  0  0  0  0  0  0
  1 20  2  0  0  0  0
  2 12  1  0  0  0  0
  2 18  1  0  0  0  0
  2 21  1  0  0  0  0
  3 13  1  0  0  0  0
  3 17  1  0  0  0  0
  4 10  1  0  0  0  0
  4 21  1  0  0  0  0
  4 25  1  0  0  0  0
  5  9  1  0  0  0  0
  5 11  1  0  0  0  0
  6 12  1  0  0  0  0
  6 15  1  0  0  0  0
  6 16  1  0  0  0  0
  6 22  1  0  0  0  0
  7 23  1  0  0  0  0
  7 28  2  0  0  0  0
  8 10  1  0  0  0  0
  8 20  1  0  0  0  0
  9 17  1  0  0  0  0
 11 26  1  0  0  0  0
 12 15  1  0  0  0  0
 12 22  1  0  0  0  0
 13 19  2  0  0  0  0
 14 18  2  0  0  0  0
 15 28  1  0  0  0  0
 16 24  1  0  0  0  0
 18 27  1  0  0  0  0
 19 26  1  0  0  0  0
 20 27  1  0  0  0  0
 21 27  1  0  0  0  0
 23 24  1  0  0  0  0
 24 26  1  0  0  0  0
M  END
>  <Original_Directory>
4o2l_A_rec_3sea_gdp_lig_tt_docked_0_pocket10

>  <Original_Filename>
4o2l_A_rec_3sea_gdp_lig_tt_docked_0_pocket10_gen_sample_14.sdf

>  <Molecule_ID>
sample_14

>  <logS>
-2.4296999

$$$$