/tmp/tmpdw2vct3q
  MOE2022           3D

  9  8  0  0  0  0  0  0  0  0999 V2000
   72.9870   40.6180   26.8370 C   0  0  0  0  0  0  0  0  0  0  0  0
   74.0780   38.5510   25.9870 C   0  0  0  0  0  0  0  0  0  0  0  0
   72.9510   41.8510   26.2180 N   0  0  0  0  0  0  0  0  0  0  0  0
   75.0900   35.8810   23.9940 O   0  0  0  0  0  0  0  0  0  0  0  0
   73.4420   35.6330   25.4030 O   0  0  0  0  0  0  0  0  0  0  0  0
   74.2790   36.3540   24.8240 C   0  0  0  0  0  0  0  0  0  0  0  0
   73.1690   39.6270   25.8860 O   0  0  0  0  0  0  0  0  0  0  0  0
   74.1090   37.7020   24.8260 N   0  0  0  0  0  0  0  0  0  0  0  0
   73.5640   40.5350   27.9570 O   0  0  0  0  0  0  0  0  0  0  0  0
  1  3  1  0  0  0  0
  1  7  1  0  0  0  0
  1  9  2  0  0  0  0
  2  7  1  0  0  0  0
  2  8  1  0  0  0  0
  4  6  2  0  0  0  0
  5  6  1  0  0  0  0
  6  8  1  0  0  0  0
M  END
>  <Original_Directory>
3c5g_A_rec_3mda_ppv_lig_tt_docked_3_pocket10

>  <Original_Filename>
3c5g_A_rec_3mda_ppv_lig_tt_docked_3_pocket10_gen_sample_14.sdf

>  <Molecule_ID>
sample_14

>  <logS>
0.51152003

$$$$