/tmp/tmpm9wbl9r1
  MOE2022           3D

 19 21  0  0  0  0  0  0  0  0999 V2000
   -3.6710   -4.9060  -31.6410 C   0  0  0  0  0  0  0  0  0  0  0  0
   -3.9550   -2.6440  -32.4280 C   0  0  0  0  0  0  0  0  0  0  0  0
   -6.3510   -1.8040  -34.1440 C   0  0  0  0  0  0  0  0  0  0  0  0
   -3.0070   -3.6960  -27.4550 C   0  0  0  0  0  0  0  0  0  0  0  0
    0.1220   -1.8360  -29.0950 O   0  0  0  0  0  0  0  0  0  0  0  0
   -3.0500   -3.4010  -30.1470 C   0  0  0  0  0  0  0  0  0  0  0  0
   -3.8050   -4.3910  -29.4780 C   0  0  0  0  0  0  0  0  0  0  0  0
   -5.8450   -1.2470  -33.0030 C   0  0  0  0  0  0  0  0  0  0  0  0
   -5.8090   -2.7910  -34.9510 C   0  0  0  0  0  0  0  0  0  0  0  0
   -1.0040   -1.3850  -30.9350 O   0  0  0  0  0  0  0  0  0  0  0  0
   -3.6740   -2.8890  -33.7700 C   0  0  0  0  0  0  0  0  0  0  0  0
   -4.0070   -4.2550  -28.1350 N   0  0  0  0  0  0  0  0  0  0  0  0
   -4.8500   -1.6150  -32.1070 C   0  0  0  0  0  0  0  0  0  0  0  0
   -4.4910   -3.1680  -34.8340 C   0  0  0  0  0  0  0  0  0  0  0  0
   -0.8980   -1.9410  -29.8270 C   0  0  0  0  0  0  0  0  0  0  0  0
   -3.4400   -3.5580  -31.4860 N   0  0  0  0  0  0  0  0  0  0  0  0
   -4.1270   -5.4000  -30.4430 C   0  0  0  0  0  0  0  0  0  0  0  0
   -1.9940   -2.8550  -29.3400 C   0  0  0  0  0  0  0  0  0  0  0  0
   -1.8770   -3.2700  -28.0430 N   0  0  0  0  0  0  0  0  0  0  0  0
  1 16  1  0  0  0  0
  1 17  1  0  0  0  0
  2 11  2  0  0  0  0
  2 13  1  0  0  0  0
  2 16  1  0  0  0  0
  3  8  2  0  0  0  0
  3  9  1  0  0  0  0
  4 12  2  0  0  0  0
  4 19  1  0  0  0  0
  5 15  1  0  0  0  0
  6  7  2  0  0  0  0
  6 16  1  0  0  0  0
  6 18  1  0  0  0  0
  7 12  1  0  0  0  0
  7 17  1  0  0  0  0
  8 13  1  0  0  0  0
  9 14  2  0  0  0  0
 10 15  2  0  0  0  0
 11 14  1  0  0  0  0
 15 18  1  0  0  0  0
 18 19  2  0  0  0  0
M  END
>  <Original_Directory>
4ocp_A_rec_4oco_gn1_lig_tt_min_0_pocket10

>  <Original_Filename>
4ocp_A_rec_4oco_gn1_lig_tt_min_0_pocket10_gen_sample_1.sdf

>  <Molecule_ID>
sample_1

>  <logS>
-2.2880299

$$$$