/tmp/tmp3ajjsp16
  MOE2022           3D

 11 12  0  0  0  0  0  0  0  0999 V2000
   54.0230  110.0740   34.4830 N   0  0  0  0  0  0  0  0  0  0  0  0
   52.7620  107.6260   34.1350 C   0  0  0  0  0  0  0  0  0  0  0  0
   53.5790  109.0870   37.9550 C   0  0  0  0  0  0  0  0  0  0  0  0
   53.6700  109.3460   35.5560 C   0  0  0  0  0  0  0  0  0  0  0  0
   53.9100  109.5480   33.2530 C   0  0  0  0  0  0  0  0  0  0  0  0
   53.1550  107.7770   37.7920 C   0  0  0  0  0  0  0  0  0  0  0  0
   53.0240  108.4780   33.0590 C   0  0  0  0  0  0  0  0  0  0  0  0
   53.7930  109.8870   36.8420 C   0  0  0  0  0  0  0  0  0  0  0  0
   53.0280  107.2390   36.5150 C   0  0  0  0  0  0  0  0  0  0  0  0
   53.0480  108.1030   35.4110 C   0  0  0  0  0  0  0  0  0  0  0  0
   53.9890  111.2050   36.9910 O   0  0  0  0  0  0  0  0  0  0  0  0
  1  4  1  0  0  0  0
  1  5  2  0  0  0  0
  2  7  2  0  0  0  0
  2 10  1  0  0  0  0
  3  6  1  0  0  0  0
  3  8  2  0  0  0  0
  4  8  1  0  0  0  0
  4 10  2  0  0  0  0
  5  7  1  0  0  0  0
  6  9  2  0  0  0  0
  8 11  1  0  0  0  0
  9 10  1  0  0  0  0
M  END
>  <Original_Directory>
4lm0_A_rec_4mrz_2zv_lig_tt_docked_10_pocket10

>  <Original_Filename>
4lm0_A_rec_4mrz_2zv_lig_tt_docked_10_pocket10_gen_sample_13.sdf

>  <Molecule_ID>
sample_13

>  <logS>
-1.61147

$$$$