/tmp/tmp00jdl53i
  MOE2022           3D

 28 31  0  0  1  0  0  0  0  0999 V2000
   19.2050    8.3330  111.3390 C   0  0  0  0  0  0  0  0  0  0  0  0
   15.0570    4.3610  113.0990 C   0  0  0  0  0  0  0  0  0  0  0  0
   15.6750    5.8400  114.8530 C   0  0  0  0  0  0  0  0  0  0  0  0
   18.6730    7.2470  110.6330 C   0  0  0  0  0  0  0  0  0  0  0  0
   16.4230    2.3920  115.7090 O   0  0  0  0  0  0  0  0  0  0  0  0
   16.7430    0.9220  115.2330 P   0  0  1  0  0  0  0  0  0  0  0  0
   14.9870    3.3230  114.0190 C   0  0  0  0  0  0  0  0  0  0  0  0
   15.7670    3.4600  115.1640 C   0  0  0  0  0  0  0  0  0  0  0  0
   16.2410    0.6610  113.8700 O   0  0  0  0  0  0  0  0  0  0  0  0
   15.1650    4.3180  111.7380 C   0  0  0  0  0  0  0  0  0  0  0  0
   17.4050    6.7850  110.9600 C   0  0  0  0  0  0  0  0  0  0  0  0
   15.9520    6.2360  112.4320 N   0  0  0  0  0  0  0  0  0  0  0  0
   18.1860    0.6860  115.4980 O   0  0  0  0  0  0  0  0  0  0  0  0
   15.9880    4.7450  115.6530 C   0  0  0  0  0  0  0  0  0  0  0  0
   17.0230   -3.0320  114.8090 P   0  0  0  0  0  0  0  0  0  0  0  0
   16.5140   -3.0700  113.4050 O   0  0  0  0  0  0  0  0  0  0  0  0
   20.3090    8.8390  111.1090 O   0  0  0  0  0  0  0  0  0  0  0  0
   16.7860    5.6690  110.5130 N   0  0  0  0  0  0  0  0  0  0  0  0
   15.8640    0.0840  116.2440 O   0  0  0  0  0  0  0  0  0  0  0  0
   16.8000    7.2020  112.1230 C   0  0  3  0  0  0  0  0  0  0  0  0
   17.1840    8.4080  112.6670 C   0  0  0  0  0  0  0  0  0  0  0  0
   15.7880    5.4530  111.3650 C   0  0  0  0  0  0  0  0  0  0  0  0
   17.1390   -4.4070  115.4000 O   0  0  0  0  0  0  0  0  0  0  0  0
   18.3070   -2.2300  114.8870 O   0  0  0  0  0  0  0  0  0  0  0  0
   15.5070    5.5980  113.5080 C   0  0  0  0  0  0  0  0  0  0  0  0
   16.1710   -1.2430  116.6360 C   0  0  0  0  0  0  0  0  0  0  0  0
   18.4440    8.8510  112.3840 N   0  0  0  0  0  0  0  0  0  0  0  0
   15.9210   -2.2700  115.6970 O   0  0  0  0  0  0  0  0  0  0  0  0
  1  4  1  0  0  0  0
  1 17  2  0  0  0  0
  1 27  1  0  0  0  0
  2  7  2  0  0  0  0
  2 10  1  0  0  0  0
  2 25  1  0  0  0  0
  3 14  1  0  0  0  0
  3 25  2  0  0  0  0
  4 11  2  0  0  0  0
  5  6  1  0  0  0  0
  5  8  1  0  0  0  0
  6  9  2  0  0  0  0
  6 13  1  0  0  0  0
  6 19  1  0  0  0  0
  7  8  1  0  0  0  0
  8 14  2  0  0  0  0
 10 22  2  0  0  0  0
 11 18  1  0  0  0  0
 11 20  1  0  0  0  0
 12 20  1  0  0  0  0
 12 22  1  0  0  0  0
 12 25  1  0  0  0  0
 15 16  2  0  0  0  0
 15 23  1  0  0  0  0
 15 24  1  0  0  0  0
 15 28  1  0  0  0  0
 18 22  1  0  0  0  0
 19 26  1  0  0  0  0
 20 21  1  0  0  0  0
 21 27  1  0  0  0  0
 26 28  1  0  0  0  0
M  END
>  <Original_Directory>
4nlk_A_rec_1mq3_dcp_lig_tt_docked_2_pocket10

>  <Original_Filename>
4nlk_A_rec_1mq3_dcp_lig_tt_docked_2_pocket10_gen_sample_11.sdf

>  <Molecule_ID>
sample_11

>  <logS>
-1.84663

$$$$