/tmp/tmpumjlbu8z
  MOE2022           3D

 12 15  0  0  1  0  0  0  0  0999 V2000
   82.3930  -44.8830   24.9980 C   0  0  3  0  0  0  0  0  0  0  0  0
   84.6280  -45.4380   23.9460 C   0  0  0  0  0  0  0  0  0  0  0  0
   83.8540  -43.2620   22.8760 C   0  0  0  0  0  0  0  0  0  0  0  0
   82.7980  -43.4090   25.1310 C   0  0  0  0  0  0  0  0  0  0  0  0
   82.6180  -45.4700   22.4960 C   0  0  3  0  0  0  0  0  0  0  0  0
   81.7100  -45.0060   23.6270 C   0  0  3  0  0  0  0  0  0  0  0  0
   83.6540  -45.7480   25.0610 C   0  0  0  0  0  0  0  0  0  0  0  0
   81.2830  -43.6060   21.7160 C   0  0  0  0  0  0  0  0  0  0  0  0
   83.9880  -44.7840   22.7130 C   0  0  3  0  0  0  0  0  0  0  0  0
   82.0280  -44.8250   21.2330 C   0  0  0  0  0  0  0  0  0  0  0  0
   81.3780  -43.5620   23.2410 C   0  0  3  0  0  0  0  0  0  0  0  0
   82.6350  -42.8280   23.7220 C   0  0  3  0  0  0  0  0  0  0  0  0
  1  4  1  0  0  0  0
  1  6  1  0  0  0  0
  1  7  1  0  0  0  0
  2  7  1  0  0  0  0
  2  9  1  0  0  0  0
  3  9  1  0  0  0  0
  3 12  1  0  0  0  0
  4 12  1  0  0  0  0
  5  6  1  0  0  0  0
  5  9  1  0  0  0  0
  5 10  1  0  0  0  0
  6 11  1  0  0  0  0
  8 10  1  0  0  0  0
  8 11  1  0  0  0  0
 11 12  1  0  0  0  0
M  END
>  <Original_Directory>
4bdf_A_rec_4bdh_wvi_lig_tt_docked_1_pocket10

>  <Original_Filename>
4bdf_A_rec_4bdh_wvi_lig_tt_docked_1_pocket10_gen_sample_1.sdf

>  <Molecule_ID>
sample_1

>  <logS>
-5.6159

$$$$