/tmp/tmp4emv9ghd
  MOE2022           3D

 32 35  0  0  1  0  0  0  0  0999 V2000
  -15.7200    7.9340    3.0450 C   0  0  0  0  0  0  0  0  0  0  0  0
  -15.6470    9.4530    3.1200 C   0  0  0  0  0  0  0  0  0  0  0  0
  -15.3140    3.6510   -5.2060 C   0  0  0  0  0  0  0  0  0  0  0  0
  -14.1960    1.8220   -6.4680 C   0  0  0  0  0  0  0  0  0  0  0  0
  -17.2080    6.1420    2.3870 O   0  0  0  0  0  0  0  0  0  0  0  0
  -16.1110   10.2850    1.9260 C   0  0  0  0  0  0  0  0  0  0  0  0
  -17.6810    8.4000    1.6130 C   0  0  0  0  0  0  0  0  0  0  0  0
  -15.7520    7.0180    0.7180 C   0  0  0  0  0  0  0  0  0  0  0  0
  -10.4740    0.3120   -4.3050 C   0  0  0  0  0  0  0  0  0  0  0  0
  -16.5930    7.7220   -2.9480 C   0  0  0  0  0  0  0  0  0  0  0  0
   -9.5710    0.9930   -3.8020 O   0  0  0  0  0  0  0  0  0  0  0  0
  -11.7300    1.2760   -6.2930 C   0  0  3  0  0  0  0  0  0  0  0  0
  -11.2500   -0.4570   -3.7050 O   0  0  0  0  0  0  0  0  0  0  0  0
  -10.6510   -0.9930   -6.3980 O   0  0  0  0  0  0  0  0  0  0  0  0
  -15.1500    4.9310   -4.6760 C   0  0  0  0  0  0  0  0  0  0  0  0
  -10.6240    0.3480   -5.8360 C   0  0  2  0  0  0  0  0  0  0  0  0
  -15.8720    7.2730   -1.7210 C   0  0  0  0  0  0  0  0  0  0  0  0
  -14.3580    3.1680   -6.2270 C   0  0  0  0  0  0  0  0  0  0  0  0
  -16.6180    7.3680    1.9290 C   0  0  1  0  0  0  0  0  0  0  0  0
  -17.4660    4.9290   -3.9810 C   0  0  0  0  0  0  0  0  0  0  0  0
  -16.5830   10.0360   -1.2930 O   0  0  0  0  0  0  0  0  0  0  0  0
  -16.2810    5.5980   -4.2390 N   0  0  0  0  0  0  0  0  0  0  0  0
  -17.5340    3.5550   -4.2050 C   0  0  0  0  0  0  0  0  0  0  0  0
  -16.1960    7.0590   -4.2410 C   0  0  0  0  0  0  0  0  0  0  0  0
  -18.8660    8.2340    1.6820 O   0  0  0  0  0  0  0  0  0  0  0  0
  -13.1090    0.9430   -6.2880 C   0  0  0  0  0  0  0  0  0  0  0  0
   -9.7270    1.2380   -6.5970 N   0  0  0  0  0  0  0  0  0  0  0  0
  -10.7630    2.2840   -6.7280 C   0  0  0  0  0  0  0  0  0  0  0  0
  -16.5290    9.2460   -0.3490 C   0  0  0  0  0  0  0  0  0  0  0  0
  -16.4220    2.9010   -4.7700 C   0  0  0  0  0  0  0  0  0  0  0  0
  -16.0620    7.8570   -0.5060 C   0  0  3  0  0  0  0  0  0  0  0  0
  -17.1290    9.6540    0.9750 C   0  0  3  0  0  0  0  0  0  0  0  0
  1  2  1  0  0  0  0
  1 19  1  0  0  0  0
  2  6  1  0  0  0  0
  3 15  1  0  0  0  0
  3 18  1  0  0  0  0
  3 30  2  0  0  0  0
  4 18  1  0  0  0  0
  4 26  1  0  0  0  0
  5 19  1  0  0  0  0
  6 32  1  0  0  0  0
  7 19  1  0  0  0  0
  7 25  2  0  0  0  0
  7 32  1  0  0  0  0
  8 19  1  0  0  0  0
  8 31  1  0  0  0  0
  9 11  2  0  0  0  0
  9 13  1  0  0  0  0
  9 16  1  0  0  0  0
 10 17  2  0  0  0  0
 10 24  1  0  0  0  0
 12 16  1  0  0  0  0
 12 26  1  0  0  0  0
 12 28  1  0  0  0  0
 14 16  1  0  0  0  0
 15 22  1  0  0  0  0
 16 27  1  0  0  0  0
 17 31  1  0  0  0  0
 20 22  1  0  0  0  0
 20 23  2  0  0  0  0
 21 29  2  0  0  0  0
 22 24  1  0  0  0  0
 23 30  1  0  0  0  0
 27 28  1  0  0  0  0
 29 31  1  0  0  0  0
 29 32  1  0  0  0  0
M  END
>  <Original_Directory>
2har_A_rec_3ogt_fmv_lig_tt_min_0_pocket10

>  <Original_Filename>
2har_A_rec_3ogt_fmv_lig_tt_min_0_pocket10_gen_sample_3.sdf

>  <Molecule_ID>
sample_3

>  <logS>
-2.44923

$$$$