
  MOE2022           3D

 18 20  0  0  1  0  0  0  0  0999 V2000
   41.4040   35.6490   65.1030 N   0  0  0  0  0  0  0  0  0  0  0  0
   48.1820   37.1930   59.0530 C   0  0  0  0  0  0  0  0  0  0  0  0
   43.3370   36.6840   66.1330 C   0  0  0  0  0  0  0  0  0  0  0  0
   45.4930   36.2140   65.1750 C   0  0  0  0  0  0  0  0  0  0  0  0
   43.6070   34.7270   64.7680 C   0  0  0  0  0  0  0  0  0  0  0  0
   42.7730   35.7070   65.3170 C   0  0  0  0  0  0  0  0  0  0  0  0
   46.0650   34.3790   63.9600 C   0  0  0  0  0  0  0  0  0  0  0  0
   44.9840   34.9650   64.6960 C   0  0  0  0  0  0  0  0  0  0  0  0
   48.2890   35.8140   59.1690 C   0  0  0  0  0  0  0  0  0  0  0  0
   46.6990   36.4110   64.5860 N   0  0  0  0  0  0  0  0  0  0  0  0
   47.0200   35.3620   63.7970 C   0  0  3  0  0  0  0  0  0  0  0  0
   48.0230   35.2060   60.3990 C   0  0  0  0  0  0  0  0  0  0  0  0
   48.9500   35.1290   58.1920 O   0  0  0  0  0  0  0  0  0  0  0  0
   48.2120   37.9580   60.2170 C   0  0  0  0  0  0  0  0  0  0  0  0
   44.7020   36.9520   66.0500 C   0  0  0  0  0  0  0  0  0  0  0  0
   48.1560   35.9550   61.5660 C   0  0  0  0  0  0  0  0  0  0  0  0
   48.2300   37.3380   61.4620 C   0  0  0  0  0  0  0  0  0  0  0  0
   48.2330   35.2830   62.9130 C   0  0  0  0  0  0  0  0  0  0  0  0
  1  6  1  0  0  0  0
  2  9  2  0  0  0  0
  2 14  1  0  0  0  0
  3  6  2  0  0  0  0
  3 15  1  0  0  0  0
  4  8  1  0  0  0  0
  4 10  1  0  0  0  0
  4 15  2  0  0  0  0
  5  6  1  0  0  0  0
  5  8  2  0  0  0  0
  7  8  1  0  0  0  0
  7 11  1  0  0  0  0
  9 12  1  0  0  0  0
  9 13  1  0  0  0  0
 10 11  1  0  0  0  0
 11 18  1  0  0  0  0
 12 16  2  0  0  0  0
 14 17  2  0  0  0  0
 16 17  1  0  0  0  0
 16 18  1  0  0  0  0
M  END
>  <Original_Directory>
3lxo_A_rec_1o0f_a3p_lig_tt_min_0_pocket10

>  <Original_Filename>
3lxo_A_rec_1o0f_a3p_lig_tt_min_0_pocket10_gen_sample_8.sdf

>  <Molecule_ID>
sample_8

>  <logS>
-2.55351

$$$$