/tmp/tmph7opjoj8
  MOE2022           3D

 23 25  0  0  0  0  0  0  0  0999 V2000
  141.4400  -30.1590   74.2980 C   0  0  0  0  0  0  0  0  0  0  0  0
  143.7260  -25.2180   77.7250 C   0  0  0  0  0  0  0  0  0  0  0  0
  142.2110  -27.1660   73.4740 C   0  0  0  0  0  0  0  0  0  0  0  0
  142.5190  -26.1880   72.4820 C   0  0  0  0  0  0  0  0  0  0  0  0
  140.4120  -22.8800   76.3180 C   0  0  0  0  0  0  0  0  0  0  0  0
  142.0470  -21.8820   74.8510 O   0  0  0  0  0  0  0  0  0  0  0  0
  142.7020  -27.1940   74.7700 C   0  0  0  0  0  0  0  0  0  0  0  0
  142.1130  -31.1700   73.9450 O   0  0  0  0  0  0  0  0  0  0  0  0
  143.1940  -26.0880   75.5240 C   0  0  0  0  0  0  0  0  0  0  0  0
  140.8720  -29.3160   73.2420 C   0  0  0  0  0  0  0  0  0  0  0  0
  141.7820  -22.7480   75.6520 C   0  0  0  0  0  0  0  0  0  0  0  0
  143.1270  -24.7560   75.0780 C   0  0  0  0  0  0  0  0  0  0  0  0
  143.5290  -25.1240   72.6130 C   0  0  0  0  0  0  0  0  0  0  0  0
  141.6840  -26.3250   71.3580 C   0  0  0  0  0  0  0  0  0  0  0  0
  143.6750  -26.2910   76.8330 C   0  0  0  0  0  0  0  0  0  0  0  0
  139.4010  -21.8470   75.8760 C   0  0  0  0  0  0  0  0  0  0  0  0
  142.7540  -23.8030   76.0450 C   0  0  0  0  0  0  0  0  0  0  0  0
  141.1790  -28.0430   72.9410 C   0  0  0  0  0  0  0  0  0  0  0  0
  140.7060  -27.3500   71.7070 C   0  0  0  0  0  0  0  0  0  0  0  0
  141.2900  -29.8590   75.5130 O   0  0  0  0  0  0  0  0  0  0  0  0
  143.3690  -24.3220   73.8060 N   0  0  0  0  0  0  0  0  0  0  0  0
  139.4780  -27.3660   71.3910 O   0  0  0  0  0  0  0  0  0  0  0  0
  143.1460  -24.0030   77.3680 C   0  0  0  0  0  0  0  0  0  0  0  0
  1  8  2  0  0  0  0
  1 10  1  0  0  0  0
  1 20  1  0  0  0  0
  2 15  2  0  0  0  0
  2 23  1  0  0  0  0
  3  4  2  0  0  0  0
  3  7  1  0  0  0  0
  3 18  1  0  0  0  0
  4 13  1  0  0  0  0
  4 14  1  0  0  0  0
  5 11  1  0  0  0  0
  5 16  1  0  0  0  0
  6 11  2  0  0  0  0
  7  9  1  0  0  0  0
  9 12  2  0  0  0  0
  9 15  1  0  0  0  0
 10 18  2  0  0  0  0
 11 17  1  0  0  0  0
 12 17  1  0  0  0  0
 12 21  1  0  0  0  0
 13 21  1  0  0  0  0
 14 19  1  0  0  0  0
 17 23  2  0  0  0  0
 18 19  1  0  0  0  0
 19 22  2  0  0  0  0
M  END
>  <Original_Directory>
1s9g_A_rec_1s6p_iet_lig_tt_min_0_pocket10

>  <Original_Filename>
1s9g_A_rec_1s6p_iet_lig_tt_min_0_pocket10_gen_sample_12.sdf

>  <Molecule_ID>
sample_12

>  <logS>
-3.2776101

$$$$