/tmp/tmp276un1zd
  MOE2022           3D

 28 34  0  0  1  0  0  0  0  0999 V2000
   21.5630    8.3320    5.0580 C   0  0  0  0  0  0  0  0  0  0  0  0
   24.6470    9.3740    0.9490 C   0  0  0  0  0  0  0  0  0  0  0  0
   18.7600    6.5470    4.2980 C   0  0  0  0  0  0  0  0  0  0  0  0
   23.1560    8.2800    2.4770 C   0  0  3  0  0  0  0  0  0  0  0  0
   22.0000    7.3440    2.7010 C   0  0  0  0  0  0  0  0  0  0  0  0
   21.3450    7.1810    4.0730 C   0  0  3  0  0  0  0  0  0  0  0  0
   21.6010    5.8010    0.3660 C   0  0  3  0  0  0  0  0  0  0  0  0
   22.8770    9.0830    4.8130 C   0  0  0  0  0  0  0  0  0  0  0  0
   16.8680    4.5050    1.9190 O   0  0  0  0  0  0  0  0  0  0  0  0
   24.1090   10.4990    3.1390 C   0  0  0  0  0  0  0  0  0  0  0  0
   23.2250    8.7500    0.9920 C   0  0  3  0  0  0  0  0  0  0  0  0
   20.2130    5.4550   -0.2570 C   0  0  3  0  0  0  0  0  0  0  0  0
   21.4770    6.2270    1.8180 C   0  0  0  0  0  0  0  0  0  0  0  0
   22.0420    7.0200   -0.5280 C   0  0  3  0  0  0  0  0  0  0  0  0
   20.4940    4.8470   -1.5790 N   0  0  0  0  0  0  0  0  0  0  0  0
   21.2440    5.7730   -2.4550 C   0  0  0  0  0  0  0  0  0  0  0  0
   20.0380    6.4920    3.7420 C   0  0  0  0  0  0  0  0  0  0  0  0
   22.9030    9.5690    3.3330 C   0  0  3  0  0  0  0  0  0  0  0  0
   19.1790    5.1360    1.9200 C   0  0  0  0  0  0  0  0  0  0  0  0
   22.5410    6.2370   -1.7750 C   0  0  0  0  0  0  0  0  0  0  0  0
   23.2540    7.6060    0.0750 N   0  0  0  0  0  0  0  0  0  0  0  0
   24.4560   10.7170    1.6720 C   0  0  0  0  0  0  0  0  0  0  0  0
   21.5950    7.8570    6.3680 O   0  0  0  0  0  0  0  0  0  0  0  0
   17.6920    5.9060    3.6670 C   0  0  0  0  0  0  0  0  0  0  0  0
   17.9160    5.1360    2.5190 C   0  0  0  0  0  0  0  0  0  0  0  0
   20.2120    5.8330    2.5100 C   0  0  0  0  0  0  0  0  0  0  0  0
   20.4990    9.2160    4.9460 O   0  0  0  0  0  0  0  0  0  0  0  0
   19.5150    4.3890    0.6470 C   0  0  0  0  0  0  0  0  0  0  0  0
  1  6  1  0  0  0  0
  1  8  1  0  0  0  0
  1 23  1  0  0  0  0
  1 27  1  0  0  0  0
  2 11  1  0  0  0  0
  2 22  1  0  0  0  0
  3 17  2  0  0  0  0
  3 24  1  0  0  0  0
  4  5  1  0  0  0  0
  4 11  1  0  0  0  0
  4 18  1  0  0  0  0
  5  6  1  0  0  0  0
  5 13  2  0  0  0  0
  6 17  1  0  0  0  0
  7 12  1  0  0  0  0
  7 13  1  0  0  0  0
  7 14  1  0  0  0  0
  8 18  1  0  0  0  0
  9 25  1  0  0  0  0
 10 18  1  0  0  0  0
 10 22  1  0  0  0  0
 11 21  1  0  0  0  0
 12 15  1  0  0  0  0
 12 28  1  0  0  0  0
 13 26  1  0  0  0  0
 14 20  1  0  0  0  0
 14 21  1  0  0  0  0
 15 16  1  0  0  0  0
 16 20  1  0  0  0  0
 17 26  1  0  0  0  0
 19 25  1  0  0  0  0
 19 26  2  0  0  0  0
 19 28  1  0  0  0  0
 24 25  2  0  0  0  0
M  END
>  <Original_Directory>
5bpy_A_rec_3pix_027_lig_tt_docked_4_pocket10

>  <Original_Filename>
5bpy_A_rec_3pix_027_lig_tt_docked_4_pocket10_gen_sample_5.sdf

>  <Molecule_ID>
sample_5

>  <logS>
-2.4554999

$$$$