
  MOE2022           3D

 28 31  0  0  1  0  0  0  0  0999 V2000
    5.7690  -21.9380   -7.7920 C   0  0  0  0  0  0  0  0  0  0  0  0
   11.9500  -23.1970   -5.2300 C   0  0  0  0  0  0  0  0  0  0  0  0
   14.6360  -20.1660   -7.1460 C   0  0  0  0  0  0  0  0  0  0  0  0
   10.0300  -22.0840   -6.2510 N   0  0  0  0  0  0  0  0  0  0  0  0
    5.8870  -23.9680   -6.5030 C   0  0  0  0  0  0  0  0  0  0  0  0
   12.5240  -23.4900   -3.8580 C   0  0  0  0  0  0  0  0  0  0  0  0
   14.0170  -20.0220   -5.9180 C   0  0  0  0  0  0  0  0  0  0  0  0
   14.2930  -19.8020   -8.4130 C   0  0  0  0  0  0  0  0  0  0  0  0
   13.4730  -23.2070   -0.9100 C   0  0  0  0  0  0  0  0  0  0  0  0
   11.7490  -23.3300   -2.7180 C   0  0  0  0  0  0  0  0  0  0  0  0
   13.3910  -18.8370   -8.7890 C   0  0  0  0  0  0  0  0  0  0  0  0
   13.7990  -23.9980   -3.8200 C   0  0  0  0  0  0  0  0  0  0  0  0
    8.9660  -22.9000   -6.0050 C   0  0  0  0  0  0  0  0  0  0  0  0
   12.7270  -19.5410   -5.7500 C   0  0  0  0  0  0  0  0  0  0  0  0
   12.4660  -18.3010   -7.9310 C   0  0  0  0  0  0  0  0  0  0  0  0
   11.0110  -22.0140   -5.3040 C   0  0  3  0  0  0  0  0  0  0  0  0
    6.7290  -23.0530   -7.3970 C   0  0  0  0  0  0  0  0  0  0  0  0
    5.6460  -21.1230   -6.4860 C   0  0  0  0  0  0  0  0  0  0  0  0
    5.7970  -23.1830   -5.1950 C   0  0  0  0  0  0  0  0  0  0  0  0
    6.5620  -21.8990   -5.5210 C   0  0  0  0  0  0  0  0  0  0  0  0
   12.1140  -18.7220   -6.6760 C   0  0  0  0  0  0  0  0  0  0  0  0
    9.0430  -24.0200   -5.5220 O   0  0  0  0  0  0  0  0  0  0  0  0
    7.6780  -22.3210   -6.4590 C   0  0  0  0  0  0  0  0  0  0  0  0
   11.9900  -19.8640   -4.5060 C   0  0  0  0  0  0  0  0  0  0  0  0
   14.6610  -23.3380   -1.6080 C   0  0  0  0  0  0  0  0  0  0  0  0
   12.1940  -23.3220   -1.4110 C   0  0  0  0  0  0  0  0  0  0  0  0
   14.7940  -23.7990   -2.8940 C   0  0  0  0  0  0  0  0  0  0  0  0
   11.1060  -20.8880   -4.4550 C   0  0  0  0  0  0  0  0  0  0  0  0
  1 17  1  0  0  0  0
  1 18  1  0  0  0  0
  2  6  1  0  0  0  0
  2 16  1  0  0  0  0
  3  7  1  0  0  0  0
  3  8  2  0  0  0  0
  4 13  1  0  0  0  0
  4 16  1  0  0  0  0
  5 17  1  0  0  0  0
  5 19  1  0  0  0  0
  6 10  1  0  0  0  0
  6 12  2  0  0  0  0
  7 14  1  0  0  0  0
  8 11  1  0  0  0  0
  9 25  1  0  0  0  0
  9 26  2  0  0  0  0
 10 26  1  0  0  0  0
 11 15  2  0  0  0  0
 12 27  1  0  0  0  0
 13 22  2  0  0  0  0
 13 23  1  0  0  0  0
 14 21  2  0  0  0  0
 14 24  1  0  0  0  0
 15 21  1  0  0  0  0
 16 28  1  0  0  0  0
 17 23  1  0  0  0  0
 18 20  1  0  0  0  0
 19 20  1  0  0  0  0
 20 23  1  0  0  0  0
 24 28  1  0  0  0  0
 25 27  2  0  0  0  0
M  END
>  <Original_Directory>
3tj2_C_rec_3lbk_k23_lig_tt_docked_14_pocket10

>  <Original_Filename>
3tj2_C_rec_3lbk_k23_lig_tt_docked_14_pocket10_gen_sample_11.sdf

>  <Molecule_ID>
sample_11

>  <logS>
-5.7389398

$$$$