/tmp/tmpo4oguxa4
  MOE2022           3D

 21 23  0  0  1  0  0  0  0  0999 V2000
   42.4040   78.4720   85.8240 C   0  0  0  0  0  0  0  0  0  0  0  0
   41.0070   77.3840   83.9890 C   0  0  3  0  0  0  0  0  0  0  0  0
   41.0660   75.9200   84.4420 C   0  0  3  0  0  0  0  0  0  0  0  0
   38.1350   84.3400   85.1660 C   0  0  0  0  0  0  0  0  0  0  0  0
   39.8660   78.1800   84.6320 C   0  0  3  0  0  0  0  0  0  0  0  0
   39.3060   79.3680   86.6080 O   0  0  0  0  0  0  0  0  0  0  0  0
   41.6850   75.6450   85.8070 C   0  0  0  0  0  0  0  0  0  0  0  0
   39.7930   75.3270   84.4220 O   0  0  0  0  0  0  0  0  0  0  0  0
   38.6110   77.7910   84.1120 O   0  0  0  0  0  0  0  0  0  0  0  0
   39.9220   78.1720   86.1550 C   0  0  3  0  0  0  0  0  0  0  0  0
   40.6910   81.3540   86.8970 C   0  0  0  0  0  0  0  0  0  0  0  0
   39.9700   80.1910   87.5560 C   0  0  0  0  0  0  0  0  0  0  0  0
   37.6680   83.0450   85.3300 C   0  0  0  0  0  0  0  0  0  0  0  0
   41.3260   77.9060   86.7450 C   0  0  3  0  0  0  0  0  0  0  0  0
   41.5070   76.4540   86.8700 N   0  0  0  0  0  0  0  0  0  0  0  0
   42.3140   78.0840   84.3560 C   0  0  0  0  0  0  0  0  0  0  0  0
   38.5120   82.0620   85.8450 C   0  0  0  0  0  0  0  0  0  0  0  0
   42.3850   74.5310   85.9100 N   0  0  0  0  0  0  0  0  0  0  0  0
   39.7700   82.3970   86.3180 C   0  0  0  0  0  0  0  0  0  0  0  0
   39.3900   84.6750   85.6420 C   0  0  0  0  0  0  0  0  0  0  0  0
   40.1920   83.7110   86.2260 C   0  0  0  0  0  0  0  0  0  0  0  0
  1 14  1  0  0  0  0
  1 16  1  0  0  0  0
  2  3  1  0  0  0  0
  2  5  1  0  0  0  0
  2 16  1  0  0  0  0
  3  7  1  0  0  0  0
  3  8  1  0  0  0  0
  4 13  1  0  0  0  0
  4 20  2  0  0  0  0
  5  9  1  0  0  0  0
  5 10  1  0  0  0  0
  6 10  1  0  0  0  0
  6 12  1  0  0  0  0
  7 15  1  0  0  0  0
  7 18  2  0  0  0  0
 10 14  1  0  0  0  0
 11 12  1  0  0  0  0
 11 19  1  0  0  0  0
 13 17  2  0  0  0  0
 14 15  1  0  0  0  0
 17 19  1  0  0  0  0
 19 21  2  0  0  0  0
 20 21  1  0  0  0  0
M  END
>  <Original_Directory>
5t27_A_rec_2wxm_zzm_lig_tt_docked_1_pocket10

>  <Original_Filename>
5t27_A_rec_2wxm_zzm_lig_tt_docked_1_pocket10_gen_sample_3.sdf

>  <Molecule_ID>
sample_3

>  <logS>
-2.3083501

$$$$