/tmp/tmpvz9nykw1
  MOE2022           3D

 21 23  0  0  1  0  0  0  0  0999 V2000
  -29.1860    7.2190   14.6530 C   0  0  0  0  0  0  0  0  0  0  0  0
  -24.5330   10.5290   17.1910 C   0  0  0  0  0  0  0  0  0  0  0  0
  -27.0060    7.0240   15.7360 C   0  0  0  0  0  0  0  0  0  0  0  0
  -22.6990    9.5150   18.8780 S   0  0  0  0  0  0  0  0  0  0  0  0
  -23.2880    8.2710   18.4070 O   0  0  0  0  0  0  0  0  0  0  0  0
  -24.5610   11.2390   19.4710 C   0  0  0  0  0  0  0  0  0  0  0  0
  -23.9520   10.5200   18.4670 C   0  0  3  0  0  0  0  0  0  0  0  0
  -22.3990    9.5690   20.2490 O   0  0  0  0  0  0  0  0  0  0  0  0
  -25.8970   11.2600   19.8090 C   0  0  0  0  0  0  0  0  0  0  0  0
  -26.9970    8.2680   17.9500 C   0  0  0  0  0  0  0  0  0  0  0  0
  -27.9290    6.6820   14.7580 C   0  0  0  0  0  0  0  0  0  0  0  0
  -27.2300    8.1700   16.4790 C   0  0  0  0  0  0  0  0  0  0  0  0
  -26.5720    9.6850   18.1570 C   0  0  0  0  0  0  0  0  0  0  0  0
  -26.6770   10.4630   15.8660 C   0  0  0  0  0  0  0  0  0  0  0  0
  -21.3030    9.6040   18.6920 O   0  0  0  0  0  0  0  0  0  0  0  0
  -28.9700    9.4780   15.5410 C   0  0  0  0  0  0  0  0  0  0  0  0
  -29.7020    8.4080   15.0820 C   0  0  0  0  0  0  0  0  0  0  0  0
  -26.8720   10.4390   19.2820 C   0  0  0  0  0  0  0  0  0  0  0  0
  -27.6410    9.3320   15.8640 C   0  0  0  0  0  0  0  0  0  0  0  0
  -25.8910   10.2770   17.1120 C   0  0  0  0  0  0  0  0  0  0  0  0
  -29.5650   10.6790   15.7100 O   0  0  0  0  0  0  0  0  0  0  0  0
  1 11  2  0  0  0  0
  1 17  1  0  0  0  0
  2  7  1  0  0  0  0
  2 20  2  0  0  0  0
  3 11  1  0  0  0  0
  3 12  2  0  0  0  0
  4  5  1  0  0  0  0
  4  7  1  0  0  0  0
  4  8  1  0  0  0  0
  4 15  1  0  0  0  0
  6  7  1  0  0  0  0
  6  9  2  0  0  0  0
  9 18  1  0  0  0  0
 10 12  1  0  0  0  0
 10 13  1  0  0  0  0
 12 19  1  0  0  0  0
 13 18  2  0  0  0  0
 13 20  1  0  0  0  0
 14 19  1  0  0  0  0
 14 20  1  0  0  0  0
 16 17  1  0  0  0  0
 16 19  2  0  0  0  0
 16 21  1  0  0  0  0
M  END
>  <Original_Directory>
1e2f_A_rec_1e9c_tmp_lig_tt_docked_1_pocket10

>  <Original_Filename>
1e2f_A_rec_1e9c_tmp_lig_tt_docked_1_pocket10_gen_sample_11.sdf

>  <Molecule_ID>
sample_11

>  <logS>
-2.7641799

$$$$