/tmp/tmp9iawruho
  MOE2022           3D

 27 32  0  0  1  0  0  0  0  0999 V2000
   -8.2360    6.9040    7.2960 C   0  0  3  0  0  0  0  0  0  0  0  0
  -10.7280    4.3620    6.3820 O   0  0  0  0  0  0  0  0  0  0  0  0
  -12.8400    8.3700    7.4650 C   0  0  0  0  0  0  0  0  0  0  0  0
  -11.7700    9.5570    4.4450 O   0  0  0  0  0  0  0  0  0  0  0  0
  -10.5940    7.4290    6.8940 C   0  0  3  0  0  0  0  0  0  0  0  0
  -13.0530   13.8120    5.5940 C   0  0  0  0  0  0  0  0  0  0  0  0
  -11.8650    8.0270    6.3260 C   0  0  3  0  0  0  0  0  0  0  0  0
  -12.8550    9.8170    7.9520 C   0  0  0  0  0  0  0  0  0  0  0  0
   -9.2820    7.8650    6.7180 C   0  0  3  0  0  0  0  0  0  0  0  0
   -9.5850   10.2930    6.7460 C   0  0  0  0  0  0  0  0  0  0  0  0
   -8.1220    5.0530    5.6230 O   0  0  0  0  0  0  0  0  0  0  0  0
  -11.5190    9.3220    5.6290 C   0  0  0  0  0  0  0  0  0  0  0  0
  -13.9590   11.6580    9.0760 C   0  0  0  0  0  0  0  0  0  0  0  0
   -8.8220    9.1330    6.4070 C   0  0  0  0  0  0  0  0  0  0  0  0
  -12.1580   12.8950    6.1440 O   0  0  0  0  0  0  0  0  0  0  0  0
  -12.0190   10.7910    7.3390 C   0  0  0  0  0  0  0  0  0  0  0  0
  -12.5720   12.0700    7.1640 C   0  0  3  0  0  0  0  0  0  0  0  0
  -10.7440    6.2820    7.8680 C   0  0  3  0  0  0  0  0  0  0  0  0
   -9.9870    6.7200    9.1040 C   0  0  0  0  0  0  0  0  0  0  0  0
  -10.9700   10.2690    6.5370 C   0  0  3  0  0  0  0  0  0  0  0  0
  -14.1850   14.1780    6.3240 C   0  0  0  0  0  0  0  0  0  0  0  0
   -8.5070    6.8480    8.8100 C   0  0  0  0  0  0  0  0  0  0  0  0
   -9.9520    5.0750    7.3320 C   0  0  3  0  0  0  0  0  0  0  0  0
   -8.5690    5.4790    6.8660 C   0  0  3  0  0  0  0  0  0  0  0  0
  -13.6660   12.4490    7.9490 C   0  0  0  0  0  0  0  0  0  0  0  0
  -14.5390   13.4290    7.4520 C   0  0  0  0  0  0  0  0  0  0  0  0
  -13.6390   10.3000    9.0140 C   0  0  0  0  0  0  0  0  0  0  0  0
  1  9  1  0  0  0  0
  1 22  1  0  0  0  0
  1 24  1  0  0  0  0
  2 23  1  0  0  0  0
  3  7  1  0  0  0  0
  3  8  1  0  0  0  0
  4 12  2  0  0  0  0
  5  7  1  0  0  0  0
  5  9  1  0  0  0  0
  5 18  1  0  0  0  0
  6 15  1  0  0  0  0
  6 21  2  0  0  0  0
  7 12  1  0  0  0  0
  8 16  2  0  0  0  0
  8 27  1  0  0  0  0
  9 14  1  0  0  0  0
 10 14  1  0  0  0  0
 10 20  1  0  0  0  0
 11 24  1  0  0  0  0
 12 20  1  0  0  0  0
 13 25  1  0  0  0  0
 13 27  2  0  0  0  0
 15 17  1  0  0  0  0
 16 17  1  0  0  0  0
 16 20  1  0  0  0  0
 17 25  1  0  0  0  0
 18 19  1  0  0  0  0
 18 23  1  0  0  0  0
 19 22  1  0  0  0  0
 21 26  1  0  0  0  0
 23 24  1  0  0  0  0
 25 26  2  0  0  0  0
M  END
>  <Original_Directory>
1jd0_A_rec_4qjw_wwo_lig_tt_docked_4_pocket10

>  <Original_Filename>
1jd0_A_rec_4qjw_wwo_lig_tt_docked_4_pocket10_gen_sample_13.sdf

>  <Molecule_ID>
sample_13

>  <logS>
-3.07024

$$$$