/tmp/tmpfqevg12p
  MOE2022           3D

 16 17  0  0  1  0  0  0  0  0999 V2000
   57.6340  -18.9800   44.7740 O   0  0  0  0  0  0  0  0  0  0  0  0
   58.9870  -22.9170   42.6560 C   0  0  0  0  0  0  0  0  0  0  0  0
   58.1500  -21.0300   43.9330 N   0  0  0  0  0  0  0  0  0  0  0  0
   60.0050  -24.2000   40.8860 C   0  0  0  0  0  0  0  0  0  0  0  0
   59.7680  -26.5200   41.4680 O   0  0  0  0  0  0  0  0  0  0  0  0
   57.0280  -25.9420   41.9570 O   0  0  0  0  0  0  0  0  0  0  0  0
   60.4790  -21.4390   44.0830 C   0  0  3  0  0  0  0  0  0  0  0  0
   61.2260  -22.1670   44.9410 O   0  0  0  0  0  0  0  0  0  0  0  0
   57.9460  -23.8520   42.7370 C   0  0  0  0  0  0  0  0  0  0  0  0
   59.7000  -19.2310   43.6840 C   0  0  0  0  0  0  0  0  0  0  0  0
   60.7600  -20.1120   43.7420 C   0  0  0  0  0  0  0  0  0  0  0  0
   58.4170  -19.7180   44.1800 C   0  0  0  0  0  0  0  0  0  0  0  0
   59.8300  -22.9770   41.5350 C   0  0  0  0  0  0  0  0  0  0  0  0
   59.1630  -21.9420   43.7630 C   0  0  3  0  0  0  0  0  0  0  0  0
   59.2440  -25.2750   41.3210 C   0  0  0  0  0  0  0  0  0  0  0  0
   58.0180  -24.9960   41.9410 C   0  0  0  0  0  0  0  0  0  0  0  0
  1 12  2  0  0  0  0
  2  9  1  0  0  0  0
  2 13  2  0  0  0  0
  2 14  1  0  0  0  0
  3 12  1  0  0  0  0
  3 14  1  0  0  0  0
  4 13  1  0  0  0  0
  4 15  2  0  0  0  0
  5 15  1  0  0  0  0
  6 16  1  0  0  0  0
  7  8  1  0  0  0  0
  7 11  1  0  0  0  0
  7 14  1  0  0  0  0
  9 16  2  0  0  0  0
 10 11  2  0  0  0  0
 10 12  1  0  0  0  0
 15 16  1  0  0  0  0
M  END
>  <Original_Directory>
2poc_A_rec_2puv_m6r_lig_tt_min_0_pocket10

>  <Original_Filename>
2poc_A_rec_2puv_m6r_lig_tt_min_0_pocket10_gen_sample_13.sdf

>  <Molecule_ID>
sample_13

>  <logS>
-1.25923

$$$$