/tmp/tmpbh5dh0lh
  MOE2022           3D

 10 10  0  0  0  0  0  0  0  0999 V2000
  -22.2730  -24.6440  -23.6030 C   0  0  0  0  0  0  0  0  0  0  0  0
  -21.2710  -24.7350  -21.4170 C   0  0  0  0  0  0  0  0  0  0  0  0
  -18.8520  -24.1630  -21.0830 C   0  0  0  0  0  0  0  0  0  0  0  0
  -18.3720  -25.4890  -21.0170 O   0  0  0  0  0  0  0  0  0  0  0  0
  -23.4660  -25.8850  -21.7340 C   0  0  0  0  0  0  0  0  0  0  0  0
  -24.6850  -25.3450  -22.2560 O   0  0  0  0  0  0  0  0  0  0  0  0
  -20.1340  -24.0910  -21.8740 C   0  0  0  0  0  0  0  0  0  0  0  0
  -22.2850  -25.1200  -22.2870 C   0  0  0  0  0  0  0  0  0  0  0  0
  -20.1540  -23.5500  -23.1650 C   0  0  0  0  0  0  0  0  0  0  0  0
  -21.2300  -23.8130  -24.0280 C   0  0  0  0  0  0  0  0  0  0  0  0
  1  8  2  0  0  0  0
  1 10  1  0  0  0  0
  2  7  2  0  0  0  0
  2  8  1  0  0  0  0
  3  4  1  0  0  0  0
  3  7  1  0  0  0  0
  5  6  1  0  0  0  0
  5  8  1  0  0  0  0
  7  9  1  0  0  0  0
  9 10  2  0  0  0  0
M  END
>  <Original_Directory>
4ie5_A_rec_3lfm_oga_lig_it1_it2_tt_docked_13_pocket10

>  <Original_Filename>
4ie5_A_rec_3lfm_oga_lig_it1_it2_tt_docked_13_pocket10_gen_sample_1.sdf

>  <Molecule_ID>
sample_1

>  <logS>
-0.92692

$$$$