/tmp/tmpqx43o2jo
  MOE2022           3D

 22 24  0  0  1  0  0  0  0  0999 V2000
   15.6560   40.8550   35.2690 C   0  0  0  0  0  0  0  0  0  0  0  0
   17.4620   37.8220   35.1240 C   0  0  0  0  0  0  0  0  0  0  0  0
   15.4470   40.3480   36.5460 C   0  0  0  0  0  0  0  0  0  0  0  0
   14.1720   39.9710   36.9380 C   0  0  0  0  0  0  0  0  0  0  0  0
   17.4600   36.6840   35.8720 C   0  0  0  0  0  0  0  0  0  0  0  0
   18.1110   39.0280   35.4040 C   0  0  0  0  0  0  0  0  0  0  0  0
   14.9520   41.7400   33.1640 C   0  0  0  0  0  0  0  0  0  0  0  0
   13.1110   40.0580   36.0500 C   0  0  0  0  0  0  0  0  0  0  0  0
   18.8750   39.2620   36.5390 C   0  0  0  0  0  0  0  0  0  0  0  0
   18.3990   36.2570   36.8070 C   0  0  0  0  0  0  0  0  0  0  0  0
   18.7460   34.5220   36.6810 P   0  0  0  0  0  0  0  0  0  0  0  0
   19.4280   34.5140   35.3230 O   0  0  0  0  0  0  0  0  0  0  0  0
   16.4720   41.6690   33.1480 C   0  0  0  0  0  0  0  0  0  0  0  0
   13.3160   40.5650   34.7790 C   0  0  0  0  0  0  0  0  0  0  0  0
   12.0380   40.4880   33.6160 Cl  0  0  0  0  0  0  0  0  0  0  0  0
   19.4520   34.0710   37.8940 O   0  0  0  0  0  0  0  0  0  0  0  0
   17.9900   40.1300   34.3830 C   0  0  0  0  0  0  0  0  0  0  0  0
   14.5630   41.0800   34.4450 C   0  0  0  0  0  0  0  0  0  0  0  0
   19.0530   37.0540   37.7400 C   0  0  0  0  0  0  0  0  0  0  0  0
   16.9180   41.1840   34.5290 C   0  0  3  0  0  0  0  0  0  0  0  0
   19.2270   38.4330   37.5820 C   0  0  0  0  0  0  0  0  0  0  0  0
   17.4260   33.7910   36.5770 O   0  0  0  0  0  0  0  0  0  0  0  0
  1  3  1  0  0  0  0
  1 18  2  0  0  0  0
  1 20  1  0  0  0  0
  2  5  1  0  0  0  0
  2  6  2  0  0  0  0
  3  4  2  0  0  0  0
  4  8  1  0  0  0  0
  5 10  1  0  0  0  0
  6  9  1  0  0  0  0
  6 17  1  0  0  0  0
  7 13  2  0  0  0  0
  7 18  1  0  0  0  0
  8 14  2  0  0  0  0
  9 21  2  0  0  0  0
 10 11  1  0  0  0  0
 10 19  2  0  0  0  0
 11 12  2  0  0  0  0
 11 16  1  0  0  0  0
 11 22  1  0  0  0  0
 13 20  1  0  0  0  0
 14 15  1  0  0  0  0
 14 18  1  0  0  0  0
 17 20  1  0  0  0  0
 19 21  1  0  0  0  0
M  END
>  <Original_Directory>
3wk1_A_rec_2zz1_bmp_lig_tt_docked_2_pocket10

>  <Original_Filename>
3wk1_A_rec_2zz1_bmp_lig_tt_docked_2_pocket10_gen_sample_16.sdf

>  <Molecule_ID>
sample_16

>  <logS>
-4.1196399

$$$$