/tmp/tmp8g4f429e
  MOE2022           3D

 22 24  0  0  1  0  0  0  0  0999 V2000
   18.0700   38.2880   36.8710 C   0  0  0  0  0  0  0  0  0  0  0  0
   13.4850   39.8520   35.6090 N   0  0  0  0  0  0  0  0  0  0  0  0
   19.0120   34.2360   38.7120 O   0  0  0  0  0  0  0  0  0  0  0  0
   14.7100   40.4310   35.5280 C   0  0  3  0  0  0  0  0  0  0  0  0
   15.9120   40.0170   36.0980 C   0  0  0  0  0  0  0  0  0  0  0  0
   16.8740   39.5790   35.1940 C   0  0  3  0  0  0  0  0  0  0  0  0
   17.9950   35.4130   35.9690 C   0  0  0  0  0  0  0  0  0  0  0  0
   12.7320   40.5110   34.7300 C   0  0  0  0  0  0  0  0  0  0  0  0
   19.9780   36.3470   38.8160 O   0  0  0  0  0  0  0  0  0  0  0  0
   15.8870   41.1080   33.5820 N   0  0  0  0  0  0  0  0  0  0  0  0
   18.3450   35.9920   37.1530 C   0  0  0  0  0  0  0  0  0  0  0  0
   19.4530   35.3200   37.9740 C   0  0  0  0  0  0  0  0  0  0  0  0
   17.8360   37.1470   37.5610 N   0  0  0  0  0  0  0  0  0  0  0  0
   20.5560   35.1080   37.1610 O   0  0  0  0  0  0  0  0  0  0  0  0
   16.9290   40.2830   33.9010 C   0  0  0  0  0  0  0  0  0  0  0  0
   13.4880   41.1560   33.8480 N   0  0  0  0  0  0  0  0  0  0  0  0
   17.6840   38.4260   35.5390 C   0  0  0  0  0  0  0  0  0  0  0  0
   18.0780   37.4780   34.6300 C   0  0  0  0  0  0  0  0  0  0  0  0
   14.7370   41.0880   34.3290 C   0  0  0  0  0  0  0  0  0  0  0  0
   18.1010   36.1130   34.7890 C   0  0  0  0  0  0  0  0  0  0  0  0
   17.7540   40.0200   33.0330 O   0  0  0  0  0  0  0  0  0  0  0  0
   11.5900   40.1410   34.4230 O   0  0  0  0  0  0  0  0  0  0  0  0
  1 13  1  0  0  0  0
  1 17  2  0  0  0  0
  2  4  1  0  0  0  0
  2  8  1  0  0  0  0
  3 12  1  0  0  0  0
  4  5  1  0  0  0  0
  4 19  1  0  0  0  0
  5  6  1  0  0  0  0
  6 15  1  0  0  0  0
  6 17  1  0  0  0  0
  7 11  2  0  0  0  0
  7 20  1  0  0  0  0
  8 16  1  0  0  0  0
  8 22  2  0  0  0  0
  9 12  1  0  0  0  0
 10 15  1  0  0  0  0
 10 19  2  0  0  0  0
 11 12  1  0  0  0  0
 11 13  1  0  0  0  0
 12 14  1  0  0  0  0
 15 21  2  0  0  0  0
 16 19  1  0  0  0  0
 17 18  1  0  0  0  0
 18 20  2  0  0  0  0
M  END
>  <Original_Directory>
3wk1_A_rec_2zz1_bmp_lig_tt_docked_2_pocket10

>  <Original_Filename>
3wk1_A_rec_2zz1_bmp_lig_tt_docked_2_pocket10_gen_sample_11.sdf

>  <Molecule_ID>
sample_11

>  <logS>
-1.5090801

$$$$