/tmp/tmpxk_s_33h
  MOE2022           3D

 23 25  0  0  0  0  0  0  0  0999 V2000
   70.9340   21.4170   26.7580 O   0  0  0  0  0  0  0  0  0  0  0  0
   66.6710   21.9910   30.2980 C   0  0  0  0  0  0  0  0  0  0  0  0
   67.1520   22.5900   31.4760 C   0  0  0  0  0  0  0  0  0  0  0  0
   73.5070   20.0670   30.5290 C   0  0  0  0  0  0  0  0  0  0  0  0
   71.2520   20.8920   29.8280 C   0  0  0  0  0  0  0  0  0  0  0  0
   70.0060   18.1080   26.7820 P   0  0  0  0  0  0  0  0  0  0  0  0
   71.4090   18.2260   26.2640 O   0  0  0  0  0  0  0  0  0  0  0  0
   74.0910   19.4950   32.7920 O   0  0  0  0  0  0  0  0  0  0  0  0
   70.1990   20.7370   27.4300 C   0  0  0  0  0  0  0  0  0  0  0  0
   69.2600   19.7460   26.7580 C   0  0  0  0  0  0  0  0  0  0  0  0
   70.8190   21.6220   31.0440 C   0  0  0  0  0  0  0  0  0  0  0  0
   68.4790   22.3730   31.8650 C   0  0  0  0  0  0  0  0  0  0  0  0
   68.9260   21.3870   29.6770 C   0  0  0  0  0  0  0  0  0  0  0  0
   70.0930   20.9100   28.9080 C   0  0  0  0  0  0  0  0  0  0  0  0
   72.8490   21.4500   32.4990 C   0  0  0  0  0  0  0  0  0  0  0  0
   67.5440   21.2920   29.4570 C   0  0  0  0  0  0  0  0  0  0  0  0
   72.4180   20.1170   29.6670 C   0  0  0  0  0  0  0  0  0  0  0  0
   69.9810   17.6800   28.2210 O   0  0  0  0  0  0  0  0  0  0  0  0
   69.4070   21.8650   30.9320 C   0  0  0  0  0  0  0  0  0  0  0  0
   68.8140   22.4300   33.1930 O   0  0  0  0  0  0  0  0  0  0  0  0
   71.5990   21.9110   32.1880 C   0  0  0  0  0  0  0  0  0  0  0  0
   73.4780   20.3400   31.9160 C   0  0  0  0  0  0  0  0  0  0  0  0
   69.1470   17.2060   25.9310 O   0  0  0  0  0  0  0  0  0  0  0  0
  1  9  2  0  0  0  0
  2  3  1  0  0  0  0
  2 16  2  0  0  0  0
  3 12  2  0  0  0  0
  4 17  2  0  0  0  0
  4 22  1  0  0  0  0
  5 11  1  0  0  0  0
  5 14  2  0  0  0  0
  5 17  1  0  0  0  0
  6  7  1  0  0  0  0
  6 10  1  0  0  0  0
  6 18  1  0  0  0  0
  6 23  2  0  0  0  0
  8 22  1  0  0  0  0
  9 10  1  0  0  0  0
  9 14  1  0  0  0  0
 11 19  1  0  0  0  0
 11 21  2  0  0  0  0
 12 19  1  0  0  0  0
 12 20  1  0  0  0  0
 13 14  1  0  0  0  0
 13 16  1  0  0  0  0
 13 19  2  0  0  0  0
 15 21  1  0  0  0  0
 15 22  2  0  0  0  0
M  END
>  <Original_Directory>
4eak_C_rec_2uv7_amp_lig_tt_min_0_pocket10

>  <Original_Filename>
4eak_C_rec_2uv7_amp_lig_tt_min_0_pocket10_gen_sample_3.sdf

>  <Molecule_ID>
sample_3

>  <logS>
-2.65569

$$$$