/tmp/tmpnjccuyod
  MOE2022           3D

 27 31  0  0  1  0  0  0  0  0999 V2000
  -26.3580    0.1750   -8.5990 C   0  0  3  0  0  0  0  0  0  0  0  0
  -25.0860   -1.3850  -10.5130 N   0  0  0  0  0  0  0  0  0  0  0  0
  -25.2810   -1.8930   -9.2590 C   0  0  0  0  0  0  0  0  0  0  0  0
  -24.8320   -3.2130   -8.9760 C   0  0  0  0  0  0  0  0  0  0  0  0
  -24.7890    1.2130  -14.2650 C   0  0  3  0  0  0  0  0  0  0  0  0
  -27.5720    2.2280   -8.7530 C   0  0  0  0  0  0  0  0  0  0  0  0
  -27.0610    1.8500  -10.1430 C   0  0  0  0  0  0  0  0  0  0  0  0
  -26.2480    0.6140   -9.9020 C   0  0  3  0  0  0  0  0  0  0  0  0
  -23.7590    2.0520  -16.3500 N   0  0  0  0  0  0  0  0  0  0  0  0
  -24.8910   -0.1340  -16.4000 C   0  0  0  0  0  0  0  0  0  0  0  0
  -25.4500   -3.9000   -7.9220 C   0  0  0  0  0  0  0  0  0  0  0  0
  -25.9650   -1.1510   -8.2830 C   0  0  0  0  0  0  0  0  0  0  0  0
  -25.3720   -0.0890  -10.7450 C   0  0  0  0  0  0  0  0  0  0  0  0
  -23.3820    2.3250  -11.3000 O   0  0  0  0  0  0  0  0  0  0  0  0
  -24.7430    0.5730  -11.7430 N   0  0  0  0  0  0  0  0  0  0  0  0
  -22.7290    0.1230  -15.2740 C   0  0  0  0  0  0  0  0  0  0  0  0
  -26.8130    1.3480   -7.7640 C   0  0  0  0  0  0  0  0  0  0  0  0
  -27.2290   -1.3790   -6.2870 O   0  0  0  0  0  0  0  0  0  0  0  0
  -25.9120   -3.1120   -6.8640 N   0  0  0  0  0  0  0  0  0  0  0  0
  -26.4380   -1.8550   -7.0790 C   0  0  0  0  0  0  0  0  0  0  0  0
  -23.5460    0.3620  -14.0250 C   0  0  3  0  0  0  0  0  0  0  0  0
  -25.6620    0.3670  -15.1960 C   0  0  0  0  0  0  0  0  0  0  0  0
  -23.6010    1.2780  -11.8890 C   0  0  0  0  0  0  0  0  0  0  0  0
  -24.3250    2.4410  -15.0590 C   0  0  0  0  0  0  0  0  0  0  0  0
  -22.7990    0.7870  -12.8730 N   0  0  0  0  0  0  0  0  0  0  0  0
  -23.5200    0.5880  -16.5070 C   0  0  3  0  0  0  0  0  0  0  0  0
  -25.5290   -5.1160   -7.7860 O   0  0  0  0  0  0  0  0  0  0  0  0
  1  8  1  0  0  0  0
  1 12  1  0  0  0  0
  1 17  1  0  0  0  0
  2  3  1  0  0  0  0
  2 13  2  0  0  0  0
  3  4  1  0  0  0  0
  3 12  2  0  0  0  0
  4 11  1  0  0  0  0
  5 21  1  0  0  0  0
  5 22  1  0  0  0  0
  5 24  1  0  0  0  0
  6  7  1  0  0  0  0
  6 17  1  0  0  0  0
  7  8  1  0  0  0  0
  8 13  1  0  0  0  0
  9 24  1  0  0  0  0
  9 26  1  0  0  0  0
 10 22  1  0  0  0  0
 10 26  1  0  0  0  0
 11 19  1  0  0  0  0
 11 27  2  0  0  0  0
 12 20  1  0  0  0  0
 13 15  1  0  0  0  0
 14 23  2  0  0  0  0
 15 23  1  0  0  0  0
 16 21  1  0  0  0  0
 16 26  1  0  0  0  0
 18 20  2  0  0  0  0
 19 20  1  0  0  0  0
 21 25  1  0  0  0  0
 23 25  1  0  0  0  0
M  END
>  <Original_Directory>
2yoj_A_rec_3skh_058_lig_tt_docked_0_pocket10

>  <Original_Filename>
2yoj_A_rec_3skh_058_lig_tt_docked_0_pocket10_gen_sample_3.sdf

>  <Molecule_ID>
sample_3

>  <logS>
-3.0471201

$$$$