/tmp/tmpfjwx4esc
  MOE2022           3D

 29 34  0  0  1  0  0  0  0  0999 V2000
    5.6050    9.3590   18.9690 C   0  0  0  0  0  0  0  0  0  0  0  0
   11.0010    8.9940   15.6160 C   0  0  3  0  0  0  0  0  0  0  0  0
    0.8710    8.4850   18.7100 C   0  0  0  0  0  0  0  0  0  0  0  0
    8.7280    8.0350   17.4230 C   0  0  3  0  0  0  0  0  0  0  0  0
    7.3680    7.9900   17.9700 C   0  0  0  0  0  0  0  0  0  0  0  0
    4.6890    8.3020   18.8160 C   0  0  0  0  0  0  0  0  0  0  0  0
    3.3070    8.1240   19.4190 C   0  0  2  0  0  0  0  0  0  0  0  0
    9.0870   10.3790   18.3850 C   0  0  0  0  0  0  0  0  0  0  0  0
    9.9980    9.7720   16.1050 C   0  0  0  0  0  0  0  0  0  0  0  0
    9.5760    6.7690   17.3530 C   0  0  0  0  0  0  0  0  0  0  0  0
   10.7550    7.5740   15.2450 C   0  0  0  0  0  0  0  0  0  0  0  0
    2.2820    8.8840   18.6780 N   0  0  0  0  0  0  0  0  0  0  0  0
    3.3050    8.5380   20.7700 O   0  0  0  0  0  0  0  0  0  0  0  0
    1.6170    6.1170   19.2820 C   0  0  0  0  0  0  0  0  0  0  0  0
    0.4990    7.1380   19.2720 C   0  0  0  0  0  0  0  0  0  0  0  0
    8.7030    9.1140   20.5170 C   0  0  0  0  0  0  0  0  0  0  0  0
    6.4190    6.9770   17.7020 C   0  0  0  0  0  0  0  0  0  0  0  0
    5.1900   10.5710   19.3220 O   0  0  0  0  0  0  0  0  0  0  0  0
   10.8350    6.6560   16.4660 C   0  0  3  0  0  0  0  0  0  0  0  0
   13.1090    7.8570   16.4500 C   0  0  0  0  0  0  0  0  0  0  0  0
    9.2850    9.3720   17.2780 C   0  0  3  0  0  0  0  0  0  0  0  0
   12.1440    6.9430   17.2280 C   0  0  0  0  0  0  0  0  0  0  0  0
   12.4550    9.1750   16.0180 C   0  0  0  0  0  0  0  0  0  0  0  0
    5.1210    7.1000   18.2120 C   0  0  0  0  0  0  0  0  0  0  0  0
    3.0550    6.6170   19.3050 C   0  0  3  0  0  0  0  0  0  0  0  0
    4.0120    6.0780   18.2440 C   0  0  0  0  0  0  0  0  0  0  0  0
   10.6750    7.1590   14.1120 O   0  0  0  0  0  0  0  0  0  0  0  0
    8.0500    9.9600   19.4280 C   0  0  3  0  0  0  0  0  0  0  0  0
    6.9770    9.0900   18.7830 C   0  0  0  0  0  0  0  0  0  0  0  0
  1  6  1  0  0  0  0
  1 18  1  0  0  0  0
  1 29  2  0  0  0  0
  2  9  1  0  0  0  0
  2 11  1  0  0  0  0
  2 23  1  0  0  0  0
  3 12  2  0  0  0  0
  3 15  1  0  0  0  0
  4  5  1  0  0  0  0
  4 10  1  0  0  0  0
  4 21  1  0  0  0  0
  5 17  2  0  0  0  0
  5 29  1  0  0  0  0
  6  7  1  0  0  0  0
  6 24  2  0  0  0  0
  7 12  1  0  0  0  0
  7 13  1  0  0  0  0
  7 25  1  0  0  0  0
  8 21  1  0  0  0  0
  8 28  1  0  0  0  0
  9 21  1  0  0  0  0
 10 19  1  0  0  0  0
 11 19  1  0  0  0  0
 11 27  2  0  0  0  0
 14 15  1  0  0  0  0
 14 25  1  0  0  0  0
 16 28  1  0  0  0  0
 17 24  1  0  0  0  0
 19 22  1  0  0  0  0
 20 22  1  0  0  0  0
 20 23  1  0  0  0  0
 24 26  1  0  0  0  0
 25 26  1  0  0  0  0
 28 29  1  0  0  0  0
M  END
>  <Original_Directory>
2c3k_A_rec_4fsu_hk5_lig_tt_docked_1_pocket10

>  <Original_Filename>
2c3k_A_rec_4fsu_hk5_lig_tt_docked_1_pocket10_gen_sample_13.sdf

>  <Molecule_ID>
sample_13

>  <logS>
-4.7613802

$$$$