/tmp/tmpjsdytm4s
  MOE2022           3D

 17 17  0  0  1  0  0  0  0  0999 V2000
   60.7970   37.7380   44.9800 C   0  0  0  0  0  0  0  0  0  0  0  0
   58.3640   37.5890   47.5700 O   0  0  0  0  0  0  0  0  0  0  0  0
   59.7580   38.2640   45.7830 C   0  0  0  0  0  0  0  0  0  0  0  0
   60.5060   37.2630   43.8600 O   0  0  0  0  0  0  0  0  0  0  0  0
   65.0850   38.0360   41.9360 O   0  0  0  0  0  0  0  0  0  0  0  0
   63.5650   35.9870   45.0690 O   0  0  0  0  0  0  0  0  0  0  0  0
   63.3980   37.4690   43.4270 N   0  0  0  0  0  0  0  0  0  0  0  0
   60.1970   38.4460   49.3960 O   0  0  0  0  0  0  0  0  0  0  0  0
   63.0560   37.0170   44.6600 C   0  0  0  0  0  0  0  0  0  0  0  0
   65.6230   37.8180   44.1280 O   0  0  0  0  0  0  0  0  0  0  0  0
   60.5880   38.2970   48.0900 C   0  0  0  0  0  0  0  0  0  0  0  0
   64.6560   38.1820   43.2280 C   0  0  0  0  0  0  0  0  0  0  0  0
   64.4060   39.5330   43.3580 O   0  0  0  0  0  0  0  0  0  0  0  0
   61.9220   38.2990   47.7690 C   0  0  0  0  0  0  0  0  0  0  0  0
   62.1090   37.6700   45.4080 N   0  0  0  0  0  0  0  0  0  0  0  0
   59.5600   38.0910   47.1290 C   0  0  3  0  0  0  0  0  0  0  0  0
   62.5550   38.2680   46.5600 C   0  0  0  0  0  0  0  0  0  0  0  0
  1  3  1  0  0  0  0
  1  4  2  0  0  0  0
  1 15  1  0  0  0  0
  2 16  1  0  0  0  0
  3 16  1  0  0  0  0
  5 12  1  0  0  0  0
  6  9  2  0  0  0  0
  7  9  1  0  0  0  0
  7 12  1  0  0  0  0
  8 11  1  0  0  0  0
  9 15  1  0  0  0  0
 10 12  1  0  0  0  0
 11 14  2  0  0  0  0
 11 16  1  0  0  0  0
 12 13  1  0  0  0  0
 14 17  1  0  0  0  0
 15 17  1  0  0  0  0
M  END
>  <Original_Directory>
1zg7_B_rec_2jew_720_lig_tt_min_0_pocket10

>  <Original_Filename>
1zg7_B_rec_2jew_720_lig_tt_min_0_pocket10_gen_sample_19.sdf

>  <Molecule_ID>
sample_19

>  <logS>
0.54597002

$$$$