/tmp/tmpwyxlxtyv
  MOE2022           3D

  6  5  0  0  0  0  0  0  0  0999 V2000
   21.0440   15.6790   13.7940 C   0  0  0  0  0  0  0  0  0  0  0  0
   22.9610   16.5360   14.9310 O   0  0  0  0  0  0  0  0  0  0  0  0
   23.2540   14.8180   13.3510 O   0  0  0  0  0  0  0  0  0  0  0  0
   20.5800   15.0480   12.6110 O   0  0  0  0  0  0  0  0  0  0  0  0
   22.5630   15.9850   13.6930 C   0  0  0  0  0  0  0  0  0  0  0  0
   22.7840   17.0250   12.5960 C   0  0  0  0  0  0  0  0  0  0  0  0
  1  4  1  0  0  0  0
  1  5  1  0  0  0  0
  2  5  1  0  0  0  0
  3  5  1  0  0  0  0
  5  6  1  0  0  0  0
M  END
>  <Original_Directory>
3thh_A_rec_3mjl_2ai_lig_tt_min_0_pocket10

>  <Original_Filename>
3thh_A_rec_3mjl_2ai_lig_tt_min_0_pocket10_gen_sample_19.sdf

>  <Molecule_ID>
sample_19

>  <logS>
0.63391

$$$$