/tmp/tmp8g0t2fkc
  MOE2022           3D

  6  6  0  0  0  0  0  0  0  0999 V2000
   24.3760   14.9590   12.0580 C   0  0  0  0  0  0  0  0  0  0  0  0
   22.0280   15.2450   11.7820 C   0  0  0  0  0  0  0  0  0  0  0  0
   21.6790   15.3530   14.1970 O   0  0  0  0  0  0  0  0  0  0  0  0
   23.2280   14.5490   11.1630 C   0  0  0  0  0  0  0  0  0  0  0  0
   22.4230   15.3980   13.2240 C   0  0  0  0  0  0  0  0  0  0  0  0
   23.7610   15.1150   13.3560 O   0  0  0  0  0  0  0  0  0  0  0  0
  1  4  1  0  0  0  0
  1  6  1  0  0  0  0
  2  4  1  0  0  0  0
  2  5  1  0  0  0  0
  3  5  2  0  0  0  0
  5  6  1  0  0  0  0
M  END
>  <Original_Directory>
3thh_A_rec_3mjl_2ai_lig_tt_min_0_pocket10

>  <Original_Filename>
3thh_A_rec_3mjl_2ai_lig_tt_min_0_pocket10_gen_sample_9.sdf

>  <Molecule_ID>
sample_9

>  <logS>
-0.23124

$$$$