/tmp/tmplay62eln
  MOE2022           3D

 18 20  0  0  1  0  0  0  0  0999 V2000
   86.3820   62.6950   16.8000 C   0  0  0  0  0  0  0  0  0  0  0  0
   88.8640   66.4460   18.9350 C   0  0  0  0  0  0  0  0  0  0  0  0
   93.8370   64.3870   19.9580 C   0  0  0  0  0  0  0  0  0  0  0  0
   86.9110   64.9830   16.2400 N   0  0  0  0  0  0  0  0  0  0  0  0
   92.0360   65.7310   18.9110 C   0  0  0  0  0  0  0  0  0  0  0  0
   87.4010   62.6950   17.7540 C   0  0  0  0  0  0  0  0  0  0  0  0
   90.9930   65.4420   19.8120 C   0  0  0  0  0  0  0  0  0  0  0  0
   93.5020   64.3640   21.3090 C   0  0  3  0  0  0  0  0  0  0  0  0
   87.8120   66.3370   18.0300 C   0  0  0  0  0  0  0  0  0  0  0  0
   87.5190   65.0840   17.4590 C   0  0  0  0  0  0  0  0  0  0  0  0
   89.6090   65.3050   19.2690 C   0  0  0  0  0  0  0  0  0  0  0  0
   93.2520   65.0270   18.8800 C   0  0  0  0  0  0  0  0  0  0  0  0
   92.3340   64.8940   21.8800 C   0  0  0  0  0  0  0  0  0  0  0  0
   89.1020   64.0330   18.9540 C   0  0  0  0  0  0  0  0  0  0  0  0
   94.4500   63.9050   22.1770 O   0  0  0  0  0  0  0  0  0  0  0  0
   91.2060   65.3150   21.1910 C   0  0  0  0  0  0  0  0  0  0  0  0
   87.9650   63.9260   18.1290 C   0  0  0  0  0  0  0  0  0  0  0  0
   86.2840   63.8150   15.9730 C   0  0  0  0  0  0  0  0  0  0  0  0
  1  6  1  0  0  0  0
  1 18  2  0  0  0  0
  2  9  2  0  0  0  0
  2 11  1  0  0  0  0
  3  8  1  0  0  0  0
  3 12  2  0  0  0  0
  4 10  2  0  0  0  0
  4 18  1  0  0  0  0
  5  7  2  0  0  0  0
  5 12  1  0  0  0  0
  6 17  2  0  0  0  0
  7 11  1  0  0  0  0
  7 16  1  0  0  0  0
  8 13  1  0  0  0  0
  8 15  1  0  0  0  0
  9 10  1  0  0  0  0
 10 17  1  0  0  0  0
 11 14  2  0  0  0  0
 13 16  2  0  0  0  0
 14 17  1  0  0  0  0
M  END
>  <Original_Directory>
4tti_C_rec_1ovg_mdr_lig_tt_min_0_pocket10

>  <Original_Filename>
4tti_C_rec_1ovg_mdr_lig_tt_min_0_pocket10_gen_sample_9.sdf

>  <Molecule_ID>
sample_9

>  <logS>
-3.42033

$$$$