/tmp/tmpb7cj61pr
  MOE2022           3D

 27 29  0  0  1  0  0  0  0  0999 V2000
   50.2090   79.8630   16.5420 C   0  0  0  0  0  0  0  0  0  0  0  0
   50.8710   83.2320   15.4120 C   0  0  0  0  0  0  0  0  0  0  0  0
   50.0490   84.8500   12.8510 C   0  0  0  0  0  0  0  0  0  0  0  0
   50.5750   77.3720   16.0670 C   0  0  0  0  0  0  0  0  0  0  0  0
   52.8560   74.2820   15.7170 C   0  0  0  0  0  0  0  0  0  0  0  0
   55.6290   75.5900   15.9400 C   0  0  0  0  0  0  0  0  0  0  0  0
   52.6950   74.8780   18.1120 C   0  0  0  0  0  0  0  0  0  0  0  0
   51.7310   85.0800   11.4140 N   0  0  0  0  0  0  0  0  0  0  0  0
   51.0290   77.5080   14.9290 O   0  0  0  0  0  0  0  0  0  0  0  0
   54.6280   75.5850   16.9320 O   0  0  0  0  0  0  0  0  0  0  0  0
   50.5590   85.2880   10.7190 O   0  0  0  0  0  0  0  0  0  0  0  0
   51.4520   84.8400   12.7050 C   0  0  0  0  0  0  0  0  0  0  0  0
   53.5040   74.8570   17.0000 C   0  0  3  0  0  0  0  0  0  0  0  0
   50.9580   82.2760   16.5780 C   0  0  0  0  0  0  0  0  0  0  0  0
   50.6590   78.5140   17.0610 C   0  0  0  0  0  0  0  0  0  0  0  0
   51.5410   74.6280   15.5760 N   0  0  0  0  0  0  0  0  0  0  0  0
   49.6080   83.7910   15.1020 C   0  0  0  0  0  0  0  0  0  0  0  0
   56.3510   76.7590   16.1870 F   0  0  0  0  0  0  0  0  0  0  0  0
   51.3230   80.8480   16.1860 C   0  0  0  0  0  0  0  0  0  0  0  0
   52.3930   84.3380   13.6650 C   0  0  0  0  0  0  0  0  0  0  0  0
   53.4530   73.5260   14.9840 O   0  0  0  0  0  0  0  0  0  0  0  0
   49.5460   85.2490   11.6340 C   0  0  0  0  0  0  0  0  0  0  0  0
   51.3210   74.9650   17.9420 C   0  0  0  0  0  0  0  0  0  0  0  0
   52.0560   83.5740   14.7360 C   0  0  0  0  0  0  0  0  0  0  0  0
   49.9810   76.2190   16.3840 O   0  0  0  0  0  0  0  0  0  0  0  0
   50.8950   75.2380   16.6250 C   0  0  0  0  0  0  0  0  0  0  0  0
   49.2710   84.4640   13.9650 C   0  0  0  0  0  0  0  0  0  0  0  0
  1 15  1  0  0  0  0
  1 19  1  0  0  0  0
  2 14  1  0  0  0  0
  2 17  1  0  0  0  0
  2 24  2  0  0  0  0
  3 12  1  0  0  0  0
  3 22  2  0  0  0  0
  3 27  1  0  0  0  0
  4  9  2  0  0  0  0
  4 15  1  0  0  0  0
  4 25  1  0  0  0  0
  5 13  1  0  0  0  0
  5 16  1  0  0  0  0
  5 21  2  0  0  0  0
  6 10  1  0  0  0  0
  6 18  1  0  0  0  0
  7 13  1  0  0  0  0
  7 23  2  0  0  0  0
  8 11  1  0  0  0  0
  8 12  1  0  0  0  0
 10 13  1  0  0  0  0
 11 22  1  0  0  0  0
 12 20  2  0  0  0  0
 14 19  1  0  0  0  0
 16 26  2  0  0  0  0
 17 27  2  0  0  0  0
 20 24  1  0  0  0  0
 23 26  1  0  0  0  0
 25 26  1  0  0  0  0
M  END
>  <Original_Directory>
2e8a_A_rec_1hjo_adp_lig_tt_docked_0_pocket10

>  <Original_Filename>
2e8a_A_rec_1hjo_adp_lig_tt_docked_0_pocket10_gen_sample_12.sdf

>  <Molecule_ID>
sample_12

>  <logS>
-4.28793

$$$$