/tmp/tmp1hix28ge
  MOE2022           3D

 27 31  0  0  1  0  0  0  0  0999 V2000
   49.3680   75.2860   15.9190 C   0  0  0  0  0  0  0  0  0  0  0  0
   51.6640   84.3910   14.0500 C   0  0  3  0  0  0  0  0  0  0  0  0
   50.2880   82.4970   15.7540 C   0  0  3  0  0  0  0  0  0  0  0  0
   51.4650   85.8940   12.0690 C   0  0  0  0  0  0  0  0  0  0  0  0
   52.2550   84.7610   12.6890 C   0  0  0  0  0  0  0  0  0  0  0  0
   49.2790   86.8000   11.7060 O   0  0  0  0  0  0  0  0  0  0  0  0
   49.5510   83.6450   15.1580 C   0  0  0  0  0  0  0  0  0  0  0  0
   50.3510   75.0490   16.8720 C   0  0  3  0  0  0  0  0  0  0  0  0
   49.1660   76.4220   15.1920 C   0  0  0  0  0  0  0  0  0  0  0  0
   51.6540   82.3760   15.5310 C   0  0  3  0  0  0  0  0  0  0  0  0
   49.9580   85.6020   12.0410 C   0  0  3  0  0  0  0  0  0  0  0  0
   52.0580   73.6140   17.7890 C   0  0  0  0  0  0  0  0  0  0  0  0
   52.1000   81.1920   16.1250 C   0  0  3  0  0  0  0  0  0  0  0  0
   52.1780   74.4720   18.8800 C   0  0  0  0  0  0  0  0  0  0  0  0
   49.7970   81.3460   16.4150 C   0  0  0  0  0  0  0  0  0  0  0  0
   51.1320   73.9000   16.7950 C   0  0  0  0  0  0  0  0  0  0  0  0
   51.3430   75.5820   18.9970 C   0  0  0  0  0  0  0  0  0  0  0  0
   51.0720   79.1370   16.5480 N   0  0  0  0  0  0  0  0  0  0  0  0
   50.2560   78.0720   16.5810 C   0  0  0  0  0  0  0  0  0  0  0  0
   50.5980   75.9890   17.8860 C   0  0  0  0  0  0  0  0  0  0  0  0
   50.1770   84.0960   13.8370 C   0  0  3  0  0  0  0  0  0  0  0  0
   53.3400   80.7790   16.2170 O   0  0  0  0  0  0  0  0  0  0  0  0
   49.5250   77.7230   15.4480 C   0  0  0  0  0  0  0  0  0  0  0  0
   52.4070   83.1480   14.5190 C   0  0  0  0  0  0  0  0  0  0  0  0
   50.9250   80.4800   16.5100 C   0  0  0  0  0  0  0  0  0  0  0  0
   50.2110   77.3160   17.7350 C   0  0  0  0  0  0  0  0  0  0  0  0
   49.5500   85.3590   13.4330 N   0  0  0  0  0  0  0  0  0  0  0  0
  1  8  1  0  0  0  0
  1  9  2  0  0  0  0
  2  5  1  0  0  0  0
  2 21  1  0  0  0  0
  2 24  1  0  0  0  0
  3  7  1  0  0  0  0
  3 10  1  0  0  0  0
  3 15  1  0  0  0  0
  4  5  1  0  0  0  0
  4 11  1  0  0  0  0
  6 11  1  0  0  0  0
  7 21  1  0  0  0  0
  8 16  1  0  0  0  0
  8 20  1  0  0  0  0
  9 23  1  0  0  0  0
 10 13  1  0  0  0  0
 10 24  1  0  0  0  0
 11 27  1  0  0  0  0
 12 14  1  0  0  0  0
 12 16  2  0  0  0  0
 13 22  1  0  0  0  0
 13 25  1  0  0  0  0
 14 17  2  0  0  0  0
 15 25  1  0  0  0  0
 17 20  1  0  0  0  0
 18 19  1  0  0  0  0
 18 25  2  0  0  0  0
 19 23  2  0  0  0  0
 19 26  1  0  0  0  0
 20 26  2  0  0  0  0
 21 27  1  0  0  0  0
M  END
>  <Original_Directory>
2e8a_A_rec_1hjo_adp_lig_tt_docked_0_pocket10

>  <Original_Filename>
2e8a_A_rec_1hjo_adp_lig_tt_docked_0_pocket10_gen_sample_18.sdf

>  <Molecule_ID>
sample_18

>  <logS>
-3.5956099

$$$$