/tmp/tmpr2k3c08v
  MOE2022           3D

 29 32  0  0  1  0  0  0  0  0999 V2000
  143.6030  -26.3790   71.6760 C   0  0  0  0  0  0  0  0  0  0  0  0
  142.0970  -32.9470   73.2630 C   0  0  0  0  0  0  0  0  0  0  0  0
  141.9560  -31.4960   75.1940 C   0  0  0  0  0  0  0  0  0  0  0  0
  143.7970  -25.3710   76.7620 C   0  0  3  0  0  0  0  0  0  0  0  0
  146.2760  -26.4190   80.6640 C   0  0  3  0  0  0  0  0  0  0  0  0
  145.8040  -27.7400   80.1990 N   0  0  0  0  0  0  0  0  0  0  0  0
  144.9200  -25.4710   78.8250 C   0  0  3  0  0  0  0  0  0  0  0  0
  146.2780  -25.3880   79.5160 C   0  0  0  0  0  0  0  0  0  0  0  0
  141.0300  -30.7920   73.0640 C   0  0  0  0  0  0  0  0  0  0  0  0
  144.6640  -27.7720   79.2610 C   0  0  0  0  0  0  0  0  0  0  0  0
  140.2090  -29.8520   72.1950 C   0  0  0  0  0  0  0  0  0  0  0  0
  142.2460  -26.3970   73.7180 C   0  0  0  0  0  0  0  0  0  0  0  0
  142.1370  -34.2370   72.8050 O   0  0  0  0  0  0  0  0  0  0  0  0
  144.6490  -24.5320   77.6570 C   0  0  0  0  0  0  0  0  0  0  0  0
  143.2780  -25.6660   74.3230 C   0  0  3  0  0  0  0  0  0  0  0  0
  141.2950  -30.5330   74.4150 C   0  0  0  0  0  0  0  0  0  0  0  0
  139.3960  -30.3380   71.4180 O   0  0  0  0  0  0  0  0  0  0  0  0
  147.7130  -26.5800   81.1540 C   0  0  0  0  0  0  0  0  0  0  0  0
  143.8430  -26.6640   77.1440 N   0  0  0  0  0  0  0  0  0  0  0  0
  140.3900  -28.3500   72.2340 C   0  0  3  0  0  0  0  0  0  0  0  0
  141.5390  -31.9530   72.4580 C   0  0  0  0  0  0  0  0  0  0  0  0
  142.3910  -32.6870   74.6140 C   0  0  0  0  0  0  0  0  0  0  0  0
  142.4380  -26.8320   72.3660 C   0  0  0  0  0  0  0  0  0  0  0  0
  143.0180  -24.8770   75.5750 C   0  0  0  0  0  0  0  0  0  0  0  0
  141.4290  -27.6960   71.6420 C   0  0  0  0  0  0  0  0  0  0  0  0
  144.5220  -25.5730   72.3820 C   0  0  0  0  0  0  0  0  0  0  0  0
  144.5490  -25.7160   73.7840 O   0  0  0  0  0  0  0  0  0  0  0  0
  139.2360  -27.5910   72.8620 C   0  0  0  0  0  0  0  0  0  0  0  0
  144.9360  -26.8150   78.1040 C   0  0  3  0  0  0  0  0  0  0  0  0
  1 23  1  0  0  0  0
  1 26  1  0  0  0  0
  2 13  1  0  0  0  0
  2 21  1  0  0  0  0
  2 22  2  0  0  0  0
  3 16  2  0  0  0  0
  3 22  1  0  0  0  0
  4 14  1  0  0  0  0
  4 19  1  0  0  0  0
  4 24  1  0  0  0  0
  5  6  1  0  0  0  0
  5  8  1  0  0  0  0
  5 18  1  0  0  0  0
  6 10  1  0  0  0  0
  7  8  1  0  0  0  0
  7 14  1  0  0  0  0
  7 29  1  0  0  0  0
  9 11  1  0  0  0  0
  9 16  1  0  0  0  0
  9 21  2  0  0  0  0
 10 29  1  0  0  0  0
 11 17  2  0  0  0  0
 11 20  1  0  0  0  0
 12 15  1  0  0  0  0
 12 23  1  0  0  0  0
 15 24  1  0  0  0  0
 15 27  1  0  0  0  0
 19 29  1  0  0  0  0
 20 25  1  0  0  0  0
 20 28  1  0  0  0  0
 23 25  2  0  0  0  0
 26 27  1  0  0  0  0
M  END
>  <Original_Directory>
4lsn_A_rec_4lsl_1yq_lig_tt_docked_0_pocket10

>  <Original_Filename>
4lsn_A_rec_4lsl_1yq_lig_tt_docked_0_pocket10_gen_sample_9.sdf

>  <Molecule_ID>
sample_9

>  <logS>
-2.82267

$$$$