/tmp/tmpabhibxa7
  MOE2022           3D

 11 12  0  0  1  0  0  0  0  0999 V2000
   10.3230    2.5000   24.8780 O   0  0  0  0  0  0  0  0  0  0  0  0
   11.9860    0.7360   25.4560 C   0  0  0  0  0  0  0  0  0  0  0  0
    9.9170    0.0490   29.1110 C   0  0  0  0  0  0  0  0  0  0  0  0
    9.8590    0.9860   26.7680 C   0  0  3  0  0  0  0  0  0  0  0  0
   12.5130   -0.2160   26.5190 C   0  0  0  0  0  0  0  0  0  0  0  0
   10.8820    1.6800   25.8850 C   0  0  3  0  0  0  0  0  0  0  0  0
   11.4640   -0.6910   27.3670 O   0  0  0  0  0  0  0  0  0  0  0  0
    8.8770    1.1040   29.4500 C   0  0  0  0  0  0  0  0  0  0  0  0
    8.0290    1.4220   28.2150 C   0  0  0  0  0  0  0  0  0  0  0  0
    8.9190    1.9490   27.2280 O   0  0  0  0  0  0  0  0  0  0  0  0
   10.7420    0.4210   27.9080 C   0  0  3  0  0  0  0  0  0  0  0  0
  1  6  1  0  0  0  0
  2  5  1  0  0  0  0
  2  6  1  0  0  0  0
  3  8  1  0  0  0  0
  3 11  1  0  0  0  0
  4  6  1  0  0  0  0
  4 10  1  0  0  0  0
  4 11  1  0  0  0  0
  5  7  1  0  0  0  0
  7 11  1  0  0  0  0
  8  9  1  0  0  0  0
  9 10  1  0  0  0  0
M  END
>  <Original_Directory>
3qs8_A_rec_4owq_3m0_lig_tt_min_0_pocket10

>  <Original_Filename>
3qs8_A_rec_4owq_3m0_lig_tt_min_0_pocket10_gen_sample_9.sdf

>  <Molecule_ID>
sample_9

>  <logS>
-0.57626998

$$$$