/tmp/tmpt57ab6bf
  MOE2022           3D

 10 10  0  0  0  0  0  0  0  0999 V2000
   -0.0250   33.3960   25.0250 C   0  0  0  0  0  0  0  0  0  0  0  0
   -0.5540   37.1410   25.1260 C   0  0  0  0  0  0  0  0  0  0  0  0
   -0.1470   35.5150   23.2250 C   0  0  0  0  0  0  0  0  0  0  0  0
   -0.5180   34.6270   25.4400 C   0  0  0  0  0  0  0  0  0  0  0  0
   -0.3830   35.7460   24.5950 C   0  0  0  0  0  0  0  0  0  0  0  0
   -0.1620   36.5330   22.3010 N   0  0  0  0  0  0  0  0  0  0  0  0
   -1.4320   37.8510   24.6100 O   0  0  0  0  0  0  0  0  0  0  0  0
    0.1590   34.2340   22.7840 C   0  0  0  0  0  0  0  0  0  0  0  0
    0.1780   37.5830   26.0200 O   0  0  0  0  0  0  0  0  0  0  0  0
    0.2340   33.1800   23.6770 C   0  0  0  0  0  0  0  0  0  0  0  0
  1  4  2  0  0  0  0
  1 10  1  0  0  0  0
  2  5  1  0  0  0  0
  2  7  2  0  0  0  0
  2  9  1  0  0  0  0
  3  5  2  0  0  0  0
  3  6  1  0  0  0  0
  3  8  1  0  0  0  0
  4  5  1  0  0  0  0
  8 10  2  0  0  0  0
M  END
>  <Original_Directory>
1c5y_B_rec_2o8w_pl0_lig_it1_it2_tt_docked_2_pocket10

>  <Original_Filename>
1c5y_B_rec_2o8w_pl0_lig_it1_it2_tt_docked_2_pocket10_gen_sample_19.sdf

>  <Molecule_ID>
sample_19

>  <logS>
-1.07516

$$$$