/tmp/tmpcrczx4c2
  MOE2022           3D

 10 10  0  0  0  0  0  0  0  0999 V2000
   -0.8290   36.3910   25.3160 C   0  0  0  0  0  0  0  0  0  0  0  0
   -0.2870   34.2800   24.2980 C   0  0  0  0  0  0  0  0  0  0  0  0
   -0.6430   32.1210   25.2060 O   0  0  0  0  0  0  0  0  0  0  0  0
    0.0100   32.8200   24.4530 C   0  0  0  0  0  0  0  0  0  0  0  0
   -0.6680   36.2080   22.9500 N   0  0  0  0  0  0  0  0  0  0  0  0
   -0.6300   34.8490   23.0670 C   0  0  0  0  0  0  0  0  0  0  0  0
   -1.0510   37.1510   26.4250 O   0  0  0  0  0  0  0  0  0  0  0  0
   -0.4790   35.0560   25.4520 C   0  0  0  0  0  0  0  0  0  0  0  0
    1.1620   32.3490   23.9780 N   0  0  0  0  0  0  0  0  0  0  0  0
   -1.0370   36.9180   24.0460 C   0  0  0  0  0  0  0  0  0  0  0  0
  1  7  1  0  0  0  0
  1  8  2  0  0  0  0
  1 10  1  0  0  0  0
  2  4  1  0  0  0  0
  2  6  2  0  0  0  0
  2  8  1  0  0  0  0
  3  4  2  0  0  0  0
  4  9  1  0  0  0  0
  5  6  1  0  0  0  0
  5 10  2  0  0  0  0
M  END
>  <Original_Directory>
1c5y_B_rec_2o8w_pl0_lig_it1_it2_tt_docked_2_pocket10

>  <Original_Filename>
1c5y_B_rec_2o8w_pl0_lig_it1_it2_tt_docked_2_pocket10_gen_sample_3.sdf

>  <Molecule_ID>
sample_3

>  <logS>
-0.01691

$$$$