/tmp/tmpju60h5xh
  MOE2022           3D

 31 34  0  0  1  0  0  0  0  0999 V2000
   -1.9450    9.1240    7.1790 N   0  0  0  0  0  0  0  0  0  0  0  0
   -7.6050   11.2850   10.7900 C   0  0  0  0  0  0  0  0  0  0  0  0
   -1.4010   10.9650    8.9960 O   0  0  0  0  0  0  0  0  0  0  0  0
   -0.7760    7.8300   10.2430 N   0  0  0  0  0  0  0  0  0  0  0  0
   -1.9300   11.4440   13.1960 O   0  0  0  0  0  0  0  0  0  0  0  0
    0.8280    6.9760   12.0030 C   0  0  0  0  0  0  0  0  0  0  0  0
   -2.1330   10.6480   12.2930 C   0  0  0  0  0  0  0  0  0  0  0  0
   -0.2260    7.3920   14.3270 O   0  0  0  0  0  0  0  0  0  0  0  0
    0.2960    6.2980   13.5620 S   0  0  0  0  0  0  0  0  0  0  0  0
   -1.1120    4.7170   11.9120 C   0  0  0  0  0  0  0  0  0  0  0  0
   -1.2000    7.5940    8.9740 C   0  0  0  0  0  0  0  0  0  0  0  0
   -1.1640    9.5010   12.0650 C   0  0  0  0  0  0  0  0  0  0  0  0
   -0.9610    5.1300   13.2310 C   0  0  0  0  0  0  0  0  0  0  0  0
   -3.2920   10.7570   11.3720 C   0  0  3  0  0  0  0  0  0  0  0  0
   -2.1490    8.6640    8.5530 C   0  0  3  0  0  0  0  0  0  0  0  0
   -5.5920   10.9990   12.2570 C   0  0  0  0  0  0  0  0  0  0  0  0
   -3.4530   13.5620   10.7740 O   0  0  0  0  0  0  0  0  0  0  0  0
   -0.7320    5.4900   10.8100 C   0  0  0  0  0  0  0  0  0  0  0  0
   -0.9050    9.2430   10.5830 C   0  0  3  0  0  0  0  0  0  0  0  0
   -4.4720   12.9980   11.4380 C   0  0  0  0  0  0  0  0  0  0  0  0
   -5.5840   13.7650   11.8160 C   0  0  0  0  0  0  0  0  0  0  0  0
   -4.4480   11.6040   11.7300 C   0  0  0  0  0  0  0  0  0  0  0  0
   -7.7020   11.2670   13.1490 F   0  0  0  0  0  0  0  0  0  0  0  0
   -1.9280    9.7850    9.5780 C   0  0  1  0  0  0  0  0  0  0  0  0
   -6.7660   13.1710   12.1770 C   0  0  0  0  0  0  0  0  0  0  0  0
   -7.8360   13.9010   12.5200 N   0  0  0  0  0  0  0  0  0  0  0  0
   -6.9120   11.6590   12.0870 C   0  0  2  0  0  0  0  0  0  0  0  0
    1.3590    5.5610   14.1690 O   0  0  0  0  0  0  0  0  0  0  0  0
   -0.2280    6.7800   10.9610 C   0  0  3  0  0  0  0  0  0  0  0  0
   -0.7570    6.7210    8.2340 O   0  0  0  0  0  0  0  0  0  0  0  0
   -3.2830   10.0660   10.1940 C   0  0  0  0  0  0  0  0  0  0  0  0
  1 15  1  0  0  0  0
  2 27  1  0  0  0  0
  3 24  1  0  0  0  0
  4 11  1  0  0  0  0
  4 19  1  0  0  0  0
  4 29  1  0  0  0  0
  5  7  2  0  0  0  0
  6  9  1  0  0  0  0
  6 29  1  0  0  0  0
  7 12  1  0  0  0  0
  7 14  1  0  0  0  0
  8  9  2  0  0  0  0
  9 13  1  0  0  0  0
  9 28  2  0  0  0  0
 10 13  1  0  0  0  0
 10 18  2  0  0  0  0
 11 15  1  0  0  0  0
 11 30  2  0  0  0  0
 12 19  1  0  0  0  0
 14 22  1  0  0  0  0
 14 31  1  0  0  0  0
 15 24  1  0  0  0  0
 16 22  1  0  0  0  0
 16 27  1  0  0  0  0
 17 20  1  0  0  0  0
 18 29  1  0  0  0  0
 19 24  1  0  0  0  0
 20 21  1  0  0  0  0
 20 22  2  0  0  0  0
 21 25  2  0  0  0  0
 23 27  1  0  0  0  0
 24 31  1  0  0  0  0
 25 26  1  0  0  0  0
 25 27  1  0  0  0  0
M  END
>  <Original_Directory>
4lcf_A_rec_5drr_5en_lig_tt_min_0_pocket10

>  <Original_Filename>
4lcf_A_rec_5drr_5en_lig_tt_min_0_pocket10_gen_sample_3.sdf

>  <Molecule_ID>
sample_3

>  <logS>
-1.51485

$$$$