/tmp/tmpj_bu70m4
  MOE2022           3D

 25 28  0  0  1  0  0  0  0  0999 V2000
  -10.7160  -17.6430   -8.0720 C   0  0  0  0  0  0  0  0  0  0  0  0
   -5.5960  -17.1910  -11.0080 C   0  0  0  0  0  0  0  0  0  0  0  0
   -9.5700  -16.8570   -8.7060 C   0  0  3  0  0  0  0  0  0  0  0  0
  -10.9530  -18.5950  -15.4350 C   0  0  0  0  0  0  0  0  0  0  0  0
  -11.2620  -15.4450  -10.5670 O   0  0  0  0  0  0  0  0  0  0  0  0
   -8.7360  -17.8580  -14.8770 C   0  0  0  0  0  0  0  0  0  0  0  0
   -7.2090  -18.3990  -12.3040 C   0  0  0  0  0  0  0  0  0  0  0  0
   -7.7590  -19.3300   -9.5090 F   0  0  0  0  0  0  0  0  0  0  0  0
   -5.3410  -17.3440  -13.3960 C   0  0  0  0  0  0  0  0  0  0  0  0
  -10.6370  -16.0800  -11.4200 C   0  0  0  0  0  0  0  0  0  0  0  0
   -8.3600  -16.9170   -7.7800 C   0  0  0  0  0  0  0  0  0  0  0  0
   -7.7080  -17.9950   -9.8620 C   0  0  2  0  0  0  0  0  0  0  0  0
   -9.2760  -16.8050  -14.1480 C   0  0  0  0  0  0  0  0  0  0  0  0
  -10.6170  -16.8720  -13.7790 C   0  0  0  0  0  0  0  0  0  0  0  0
   -6.6020  -18.3240  -15.8200 O   0  0  0  0  0  0  0  0  0  0  0  0
   -7.2580  -18.1510  -14.8100 C   0  0  0  0  0  0  0  0  0  0  0  0
   -7.1660  -17.2550   -8.6480 C   0  0  0  0  0  0  0  0  0  0  0  0
   -9.4890  -16.7800  -11.1790 N   0  0  0  0  0  0  0  0  0  0  0  0
   -4.8640  -16.9320  -12.1630 C   0  0  0  0  0  0  0  0  0  0  0  0
  -11.1000  -16.1380  -12.7090 N   0  0  0  0  0  0  0  0  0  0  0  0
   -9.1680  -17.5560  -10.0070 C   0  0  3  0  0  0  0  0  0  0  0  0
   -6.8280  -17.8550  -11.0780 C   0  0  0  0  0  0  0  0  0  0  0  0
  -11.4670  -17.7410  -14.4590 C   0  0  0  0  0  0  0  0  0  0  0  0
   -9.5790  -18.6760  -15.6300 C   0  0  0  0  0  0  0  0  0  0  0  0
   -6.5790  -17.9720  -13.4690 C   0  0  0  0  0  0  0  0  0  0  0  0
  1  3  1  0  0  0  0
  2 19  1  0  0  0  0
  2 22  2  0  0  0  0
  3 11  1  0  0  0  0
  3 21  1  0  0  0  0
  4 23  1  0  0  0  0
  4 24  2  0  0  0  0
  5 10  2  0  0  0  0
  6 13  2  0  0  0  0
  6 16  1  0  0  0  0
  6 24  1  0  0  0  0
  7 22  1  0  0  0  0
  7 25  2  0  0  0  0
  8 12  1  0  0  0  0
  9 19  2  0  0  0  0
  9 25  1  0  0  0  0
 10 18  1  0  0  0  0
 10 20  1  0  0  0  0
 11 17  1  0  0  0  0
 12 17  1  0  0  0  0
 12 21  1  0  0  0  0
 12 22  1  0  0  0  0
 13 14  1  0  0  0  0
 14 20  1  0  0  0  0
 14 23  2  0  0  0  0
 15 16  2  0  0  0  0
 16 25  1  0  0  0  0
 18 21  1  0  0  0  0
M  END
>  <Original_Directory>
2nru_C_rec_5uit_8cd_lig_tt_docked_3_pocket10

>  <Original_Filename>
2nru_C_rec_5uit_8cd_lig_tt_docked_3_pocket10_gen_sample_6.sdf

>  <Molecule_ID>
sample_6

>  <logS>
-4.9030099

$$$$