/tmp/tmpm9_gaici
  MOE2022           3D

 13 15  0  0  1  0  0  0  0  0999 V2000
   21.0360    6.4320   -6.6910 C   0  0  0  0  0  0  0  0  0  0  0  0
   19.4790    7.9010   -9.6270 C   0  0  3  0  0  0  0  0  0  0  0  0
   20.5600    5.8740   -5.5190 C   0  0  0  0  0  0  0  0  0  0  0  0
   20.5070    7.4930   -8.7640 C   0  0  3  0  0  0  0  0  0  0  0  0
   18.0240    8.0670   -7.7700 N   0  0  0  0  0  0  0  0  0  0  0  0
   21.4760    6.9120   -9.5060 N   0  0  0  0  0  0  0  0  0  0  0  0
   18.3360    8.4180   -9.0240 C   0  0  0  0  0  0  0  0  0  0  0  0
   20.0520    7.9360  -10.9180 C   0  0  0  0  0  0  0  0  0  0  0  0
   20.1820    7.1260   -7.4830 N   0  0  0  0  0  0  0  0  0  0  0  0
   19.2480    6.1290   -5.1740 C   0  0  0  0  0  0  0  0  0  0  0  0
   19.0250    7.6290   -6.9440 C   0  0  0  0  0  0  0  0  0  0  0  0
   21.3120    7.3960  -10.7830 C   0  0  0  0  0  0  0  0  0  0  0  0
   18.6200    7.1640   -5.7360 N   0  0  0  0  0  0  0  0  0  0  0  0
  1  3  2  0  0  0  0
  1  9  1  0  0  0  0
  2  4  1  0  0  0  0
  2  7  1  0  0  0  0
  2  8  1  0  0  0  0
  3 10  1  0  0  0  0
  4  6  1  0  0  0  0
  4  9  1  0  0  0  0
  5  7  1  0  0  0  0
  5 11  2  0  0  0  0
  6 12  1  0  0  0  0
  8 12  1  0  0  0  0
  9 11  1  0  0  0  0
 10 13  1  0  0  0  0
 11 13  1  0  0  0  0
M  END
>  <Original_Directory>
4a9h_A_rec_4alh_a9p_lig_tt_min_0_pocket10

>  <Original_Filename>
4a9h_A_rec_4alh_a9p_lig_tt_min_0_pocket10_gen_sample_17.sdf

>  <Molecule_ID>
sample_17

>  <logS>
-0.23796999

$$$$