/tmp/tmp81dvdz8g
  MOE2022           3D

 27 28  0  0  1  0  0  0  0  0999 V2000
   -7.5280   20.9580   10.9110 C   0  0  0  0  0  0  0  0  0  0  0  0
    2.1490   21.0840    9.3050 O   0  0  0  0  0  0  0  0  0  0  0  0
    3.3430   20.4070   13.9290 C   0  0  0  0  0  0  0  0  0  0  0  0
    3.2940   19.3850   14.6420 O   0  0  0  0  0  0  0  0  0  0  0  0
   -7.2020   20.6050    8.5950 O   0  0  0  0  0  0  0  0  0  0  0  0
    4.3500   21.1270   13.8400 O   0  0  0  0  0  0  0  0  0  0  0  0
    2.0000   19.9560    8.4440 C   0  0  0  0  0  0  0  0  0  0  0  0
    2.3050   21.4290   11.7800 C   0  0  0  0  0  0  0  0  0  0  0  0
    2.1110   20.7010   13.0870 C   0  0  3  0  0  0  0  0  0  0  0  0
   -4.0940   20.5980   14.3140 C   0  0  3  0  0  0  0  0  0  0  0  0
    2.4400   19.2930    7.1700 C   0  0  0  0  0  0  0  0  0  0  0  0
    0.8310   20.5540   13.6640 C   0  0  0  0  0  0  0  0  0  0  0  0
   -1.7060   20.3530   14.2790 C   0  0  3  0  0  0  0  0  0  0  0  0
   -2.9460   20.0230   13.4890 C   0  0  0  0  0  0  0  0  0  0  0  0
   -6.2420   21.2540   12.9180 C   0  0  0  0  0  0  0  0  0  0  0  0
   -7.7390   22.3380   10.8290 C   0  0  0  0  0  0  0  0  0  0  0  0
   -3.5790   21.0100   15.6740 C   0  0  3  0  0  0  0  0  0  0  0  0
   -0.3970   20.1980   13.8340 C   0  0  0  0  0  0  0  0  0  0  0  0
   -7.0590   23.1710   11.7200 C   0  0  0  0  0  0  0  0  0  0  0  0
   -6.3040   20.0390   14.9260 O   0  0  0  0  0  0  0  0  0  0  0  0
   -6.2250   22.6270   12.6910 C   0  0  0  0  0  0  0  0  0  0  0  0
   -7.8160   20.0450    9.7530 C   0  0  0  0  0  0  0  0  0  0  0  0
    1.8700   20.7590   10.6020 O   0  0  0  0  0  0  0  0  0  0  0  0
   -5.5830   20.5760   14.0900 C   0  0  0  0  0  0  0  0  0  0  0  0
   -6.9990   20.4330   12.0820 C   0  0  0  0  0  0  0  0  0  0  0  0
   -4.1110   20.2210   16.7230 O   0  0  0  0  0  0  0  0  0  0  0  0
   -2.0600   20.9730   15.6000 C   0  0  0  0  0  0  0  0  0  0  0  0
  1 16  1  0  0  0  0
  1 22  1  0  0  0  0
  1 25  2  0  0  0  0
  2  7  1  0  0  0  0
  2 23  1  0  0  0  0
  3  4  1  0  0  0  0
  3  6  2  0  0  0  0
  3  9  1  0  0  0  0
  5 22  1  0  0  0  0
  7 11  1  0  0  0  0
  8  9  1  0  0  0  0
  8 23  1  0  0  0  0
  9 12  1  0  0  0  0
 10 14  1  0  0  0  0
 10 17  1  0  0  0  0
 10 24  1  0  0  0  0
 12 18  3  0  0  0  0
 13 14  1  0  0  0  0
 13 18  1  0  0  0  0
 13 27  1  0  0  0  0
 15 21  2  0  0  0  0
 15 24  1  0  0  0  0
 15 25  1  0  0  0  0
 16 19  2  0  0  0  0
 17 26  1  0  0  0  0
 17 27  1  0  0  0  0
 19 21  1  0  0  0  0
 20 24  2  0  0  0  0
M  END
>  <Original_Directory>
3a7d_A_rec_1vid_sam_lig_tt_min_0_pocket10

>  <Original_Filename>
3a7d_A_rec_1vid_sam_lig_tt_min_0_pocket10_gen_sample_15.sdf

>  <Molecule_ID>
sample_15

>  <logS>
-2.72858

$$$$