/tmp/tmp2dt2faxw
  MOE2022           3D

 31 36  0  0  0  0  0  0  0  0999 V2000
    7.1720   19.5920   -6.0980 C   0  0  0  0  0  0  0  0  0  0  0  0
    9.2500   14.1420  -14.4820 C   0  0  0  0  0  0  0  0  0  0  0  0
   11.3180   14.7360  -13.2050 N   0  0  0  0  0  0  0  0  0  0  0  0
   13.0580   16.3690  -10.3810 C   0  0  0  0  0  0  0  0  0  0  0  0
   12.2520   18.0730   -7.1090 N   0  0  0  0  0  0  0  0  0  0  0  0
   11.1240   16.0490   -9.0390 N   0  0  0  0  0  0  0  0  0  0  0  0
   14.1700   19.4230   -6.6140 C   0  0  0  0  0  0  0  0  0  0  0  0
    9.3010   14.9480  -12.1870 C   0  0  0  0  0  0  0  0  0  0  0  0
    9.9810   14.5440  -13.3670 C   0  0  0  0  0  0  0  0  0  0  0  0
    7.9540   15.3130  -12.2890 C   0  0  0  0  0  0  0  0  0  0  0  0
   12.9540   18.8800   -6.2590 C   0  0  0  0  0  0  0  0  0  0  0  0
    9.9590   18.2650   -7.9400 C   0  0  0  0  0  0  0  0  0  0  0  0
   10.3150   15.4120  -11.2910 C   0  0  0  0  0  0  0  0  0  0  0  0
    8.2410   18.7120   -6.3370 C   0  0  0  0  0  0  0  0  0  0  0  0
   10.1870   15.7510   -9.9310 C   0  0  0  0  0  0  0  0  0  0  0  0
   10.3700   17.8740   -5.6340 N   0  0  0  0  0  0  0  0  0  0  0  0
   12.7570   15.9680  -11.6160 C   0  0  0  0  0  0  0  0  0  0  0  0
    7.9450   14.5410  -14.5590 N   0  0  0  0  0  0  0  0  0  0  0  0
   11.5250   15.3410  -12.0170 C   0  0  0  0  0  0  0  0  0  0  0  0
   12.3140   16.6980   -9.2420 C   0  0  0  0  0  0  0  0  0  0  0  0
   10.8540   18.0750   -6.8940 C   0  0  0  0  0  0  0  0  0  0  0  0
    8.8110   18.7800   -4.0080 C   0  0  0  0  0  0  0  0  0  0  0  0
    6.7160   16.3420  -13.9810 O   0  0  0  0  0  0  0  0  0  0  0  0
    7.4140   15.3900  -13.5910 C   0  0  0  0  0  0  0  0  0  0  0  0
   14.2780   17.8400   -8.4030 C   0  0  0  0  0  0  0  0  0  0  0  0
    6.8840   19.9870   -4.7990 C   0  0  0  0  0  0  0  0  0  0  0  0
   12.9260   17.5070   -8.2070 C   0  0  0  0  0  0  0  0  0  0  0  0
   14.8050   18.9440   -7.7570 C   0  0  0  0  0  0  0  0  0  0  0  0
    7.7350   19.6270   -3.7620 C   0  0  0  0  0  0  0  0  0  0  0  0
    9.1590   18.4430   -5.3220 C   0  0  0  0  0  0  0  0  0  0  0  0
    8.6080   18.4100   -7.6530 C   0  0  0  0  0  0  0  0  0  0  0  0
  1 14  1  0  0  0  0
  1 26  2  0  0  0  0
  2  9  1  0  0  0  0
  2 18  2  0  0  0  0
  3  9  2  0  0  0  0
  3 19  1  0  0  0  0
  4 17  1  0  0  0  0
  4 20  2  0  0  0  0
  5 11  1  0  0  0  0
  5 21  1  0  0  0  0
  5 27  1  0  0  0  0
  6 15  2  0  0  0  0
  6 20  1  0  0  0  0
  7 11  1  0  0  0  0
  7 28  2  0  0  0  0
  8  9  1  0  0  0  0
  8 10  1  0  0  0  0
  8 13  2  0  0  0  0
 10 24  1  0  0  0  0
 12 21  2  0  0  0  0
 12 31  1  0  0  0  0
 13 15  1  0  0  0  0
 13 19  1  0  0  0  0
 14 30  1  0  0  0  0
 14 31  2  0  0  0  0
 16 21  1  0  0  0  0
 16 30  2  0  0  0  0
 17 19  2  0  0  0  0
 18 24  1  0  0  0  0
 20 27  1  0  0  0  0
 22 29  2  0  0  0  0
 22 30  1  0  0  0  0
 23 24  2  0  0  0  0
 25 27  2  0  0  0  0
 25 28  1  0  0  0  0
 26 29  1  0  0  0  0
M  END
>  <Original_Directory>
3zyu_A_rec_5vom_9gy_lig_tt_min_0_pocket10

>  <Original_Filename>
3zyu_A_rec_5vom_9gy_lig_tt_min_0_pocket10_gen_sample_14.sdf

>  <Molecule_ID>
sample_14

>  <logS>
-5.5143199

$$$$