/tmp/tmps4mi4u3b
  MOE2022           3D

 19 22  0  0  1  0  0  0  0  0999 V2000
    3.5860  -14.0770  -15.8760 C   0  0  3  0  0  0  0  0  0  0  0  0
    2.5070  -14.5670  -17.8890 N   0  0  0  0  0  0  0  0  0  0  0  0
    2.8210  -16.9260  -17.2300 C   0  0  0  0  0  0  0  0  0  0  0  0
    1.5030  -16.6700  -16.5650 C   0  0  0  0  0  0  0  0  0  0  0  0
    6.6830  -14.9020  -11.2410 O   0  0  0  0  0  0  0  0  0  0  0  0
    3.8860  -13.7440  -14.4140 C   0  0  0  0  0  0  0  0  0  0  0  0
    5.6520  -14.2820  -11.4900 C   0  0  0  0  0  0  0  0  0  0  0  0
    3.3120  -12.5430  -12.1420 C   0  0  3  0  0  0  0  0  0  0  0  0
    4.4370  -15.1440  -16.5770 C   0  0  0  0  0  0  0  0  0  0  0  0
    4.7700  -12.0340  -12.2190 C   0  0  0  0  0  0  0  0  0  0  0  0
    5.6950  -13.2000  -12.5920 C   0  0  3  0  0  0  0  0  0  0  0  0
    2.8400  -13.1920  -13.4620 C   0  0  0  0  0  0  0  0  0  0  0  0
    3.1850  -13.5570  -10.9840 C   0  0  0  0  0  0  0  0  0  0  0  0
    2.1630  -14.1890  -16.4860 C   0  0  3  0  0  0  0  0  0  0  0  0
    3.5290  -15.6430  -17.7190 C   0  0  3  0  0  0  0  0  0  0  0  0
    1.2790  -15.3320  -15.8870 C   0  0  0  0  0  0  0  0  0  0  0  0
    5.3280  -13.8680  -13.9280 C   0  0  0  0  0  0  0  0  0  0  0  0
    4.3810  -14.4500  -10.6960 C   0  0  0  0  0  0  0  0  0  0  0  0
    0.7070  -17.6310  -16.4230 O   0  0  0  0  0  0  0  0  0  0  0  0
  1  6  1  0  0  0  0
  1  9  1  0  0  0  0
  1 14  1  0  0  0  0
  2 14  1  0  0  0  0
  2 15  1  0  0  0  0
  3  4  1  0  0  0  0
  3 15  1  0  0  0  0
  4 16  1  0  0  0  0
  4 19  2  0  0  0  0
  5  7  2  0  0  0  0
  6 12  2  0  0  0  0
  6 17  1  0  0  0  0
  7 11  1  0  0  0  0
  7 18  1  0  0  0  0
  8 10  1  0  0  0  0
  8 12  1  0  0  0  0
  8 13  1  0  0  0  0
  9 15  1  0  0  0  0
 10 11  1  0  0  0  0
 11 17  1  0  0  0  0
 13 18  2  0  0  0  0
 14 16  1  0  0  0  0
M  END
>  <Original_Directory>
5em3_A_rec_5d7x_xz8_lig_tt_min_0_pocket10

>  <Original_Filename>
5em3_A_rec_5d7x_xz8_lig_tt_min_0_pocket10_gen_sample_6.sdf

>  <Molecule_ID>
sample_6

>  <logS>
-1.26896

$$$$