/tmp/tmpasob7f6n
  MOE2022           3D

 16 19  0  0  1  0  0  0  0  0999 V2000
   14.4390   10.0630   12.2320 N   0  0  0  0  0  0  0  0  0  0  0  0
   16.0770    8.8360    7.7120 C   0  0  0  0  0  0  0  0  0  0  0  0
   14.0240    9.2500    6.4000 C   0  0  3  0  0  0  0  0  0  0  0  0
   15.5390    9.8120    8.7610 C   0  0  3  0  0  0  0  0  0  0  0  0
   13.4410   10.1530    7.5090 C   0  0  0  0  0  0  0  0  0  0  0  0
   15.9090    9.6250   10.2370 C   0  0  3  0  0  0  0  0  0  0  0  0
   17.1570   10.4240   10.5710 C   0  0  0  0  0  0  0  0  0  0  0  0
   14.7910    8.1430    7.1730 C   0  0  3  0  0  0  0  0  0  0  0  0
   16.7540   10.3330   13.0200 C   0  0  0  0  0  0  0  0  0  0  0  0
   15.4050   10.3450   13.1930 C   0  0  0  0  0  0  0  0  0  0  0  0
   13.6300    9.9680   10.0760 N   0  0  0  0  0  0  0  0  0  0  0  0
   17.5920   10.4000   11.9570 N   0  0  0  0  0  0  0  0  0  0  0  0
   12.8980    8.5980    5.7910 O   0  0  0  0  0  0  0  0  0  0  0  0
   13.9350    8.0270    8.4450 C   0  0  0  0  0  0  0  0  0  0  0  0
   14.0280    9.5080    8.7590 C   0  0  2  0  0  0  0  0  0  0  0  0
   14.6550   10.2780   10.8780 C   0  0  3  0  0  0  0  0  0  0  0  0
  1 10  1  0  0  0  0
  1 16  1  0  0  0  0
  2  4  1  0  0  0  0
  2  8  1  0  0  0  0
  3  5  1  0  0  0  0
  3  8  1  0  0  0  0
  3 13  1  0  0  0  0
  4  6  1  0  0  0  0
  4 15  1  0  0  0  0
  5 15  1  0  0  0  0
  6  7  1  0  0  0  0
  6 16  1  0  0  0  0
  7 12  1  0  0  0  0
  8 14  1  0  0  0  0
  9 10  1  0  0  0  0
  9 12  2  0  0  0  0
 11 15  1  0  0  0  0
 11 16  1  0  0  0  0
 14 15  1  0  0  0  0
M  END
>  <Original_Directory>
3wk8_A_rec_5ak5_v2z_lig_tt_min_0_pocket10

>  <Original_Filename>
3wk8_A_rec_5ak5_v2z_lig_tt_min_0_pocket10_gen_sample_3.sdf

>  <Molecule_ID>
sample_3

>  <logS>
-0.35958999

$$$$