/tmp/tmpsd4p06t3
  MOE2022           3D

 15 16  0  0  0  0  0  0  0  0999 V2000
   -0.9220   34.1170   24.3970 C   0  0  0  0  0  0  0  0  0  0  0  0
    1.7940   30.3260   25.2710 C   0  0  0  0  0  0  0  0  0  0  0  0
   -1.1440   35.1530   25.3030 C   0  0  0  0  0  0  0  0  0  0  0  0
    0.3380   30.0660   25.6110 C   0  0  0  0  0  0  0  0  0  0  0  0
   -1.0880   38.5100   26.1660 O   0  0  0  0  0  0  0  0  0  0  0  0
   -0.4170   30.7210   24.4550 C   0  0  0  0  0  0  0  0  0  0  0  0
   -1.4040   36.6910   23.5090 C   0  0  0  0  0  0  0  0  0  0  0  0
   -0.0440   33.1230   24.7990 N   0  0  0  0  0  0  0  0  0  0  0  0
   -1.4290   35.6300   22.6100 C   0  0  0  0  0  0  0  0  0  0  0  0
   -1.2820   34.3280   23.0670 C   0  0  0  0  0  0  0  0  0  0  0  0
   -1.0250   36.4520   24.8280 C   0  0  0  0  0  0  0  0  0  0  0  0
   -0.2940   37.4640   25.6720 C   0  0  0  0  0  0  0  0  0  0  0  0
    0.4060   31.9400   24.0960 C   0  0  0  0  0  0  0  0  0  0  0  0
   -1.8500   37.9240   23.1320 N   0  0  0  0  0  0  0  0  0  0  0  0
    1.8260   31.6790   24.5710 C   0  0  0  0  0  0  0  0  0  0  0  0
  1  3  1  0  0  0  0
  1  8  1  0  0  0  0
  1 10  2  0  0  0  0
  2  4  1  0  0  0  0
  2 15  1  0  0  0  0
  3 11  2  0  0  0  0
  4  6  1  0  0  0  0
  5 12  1  0  0  0  0
  6 13  1  0  0  0  0
  7  9  2  0  0  0  0
  7 11  1  0  0  0  0
  7 14  1  0  0  0  0
  8 13  1  0  0  0  0
  9 10  1  0  0  0  0
 11 12  1  0  0  0  0
 13 15  1  0  0  0  0
M  END
>  <Original_Directory>
1sqo_A_rec_2vio_l1o_lig_tt_min_0_pocket10

>  <Original_Filename>
1sqo_A_rec_2vio_l1o_lig_tt_min_0_pocket10_gen_sample_3.sdf

>  <Molecule_ID>
sample_3

>  <logS>
-1.62916

$$$$