
  MOE2022           3D

 43 50  0  0  1  0  0  0  0  0999 V2000
   31.0120   96.4830   48.5060 C   0  0  0  0  0  0  0  0  0  0  0  0
   32.5800   90.7740   38.6860 C   0  0  0  0  0  0  0  0  0  0  0  0
   33.0400   92.9980   39.4900 C   0  0  3  0  0  0  0  0  0  0  0  0
   32.4920   94.5450   41.4790 C   0  0  0  0  0  0  0  0  0  0  0  0
   33.6860   90.7510   42.1170 C   0  0  3  0  0  0  0  0  0  0  0  0
   32.4300   94.4540   42.9300 C   0  0  3  0  0  0  0  0  0  0  0  0
   30.0520   94.5890   48.6740 C   0  0  0  0  0  0  0  0  0  0  0  0
   33.0250   94.6700   34.9470 N   0  0  0  0  0  0  0  0  0  0  0  0
   32.6660   95.4480   43.7740 N   0  0  0  0  0  0  0  0  0  0  0  0
   32.3650   90.3460   42.4290 C   0  0  0  0  0  0  0  0  0  0  0  0
   32.7980   94.1470   37.2540 N   0  0  0  0  0  0  0  0  0  0  0  0
   31.7850   94.7660   47.0350 C   0  0  0  0  0  0  0  0  0  0  0  0
   31.0830   95.2040   48.0800 C   0  0  0  0  0  0  0  0  0  0  0  0
   28.5200   92.8780   49.1940 C   0  0  0  0  0  0  0  0  0  0  0  0
   31.6690   91.6980   36.4260 C   0  0  0  0  0  0  0  0  0  0  0  0
   34.1200   91.0000   40.7540 C   0  0  0  0  0  0  0  0  0  0  0  0
   31.3550   92.3100   43.5890 C   0  0  0  0  0  0  0  0  0  0  0  0
   32.9400   93.5390   44.8200 C   0  0  0  0  0  0  0  0  0  0  0  0
   32.2130   93.3670   43.7200 C   0  0  3  0  0  0  0  0  0  0  0  0
   30.7370   92.9220   34.5720 N   0  0  0  0  0  0  0  0  0  0  0  0
   32.0730   97.3160   48.5170 C   0  0  0  0  0  0  0  0  0  0  0  0
   32.2470   91.8190   37.6690 C   0  0  0  0  0  0  0  0  0  0  0  0
   35.3880   91.3250   43.8800 N   0  0  0  0  0  0  0  0  0  0  0  0
   26.6370   91.9690   49.7940 C   0  0  0  0  0  0  0  0  0  0  0  0
   33.2410   91.5970   39.7410 C   0  0  3  0  0  0  0  0  0  0  0  0
   27.7860   95.1320   48.9120 C   0  0  0  0  0  0  0  0  0  0  0  0
   27.9700   91.8150   49.8400 C   0  0  0  0  0  0  0  0  0  0  0  0
   29.7850   96.6820   48.9690 N   0  0  0  0  0  0  0  0  0  0  0  0
   29.1150   95.5130   48.9210 C   0  0  0  0  0  0  0  0  0  0  0  0
   26.3870   93.0330   49.0180 N   0  0  0  0  0  0  0  0  0  0  0  0
   33.0570   94.0420   40.4380 C   0  0  0  0  0  0  0  0  0  0  0  0
   32.6540   93.1120   38.1120 C   0  0  0  0  0  0  0  0  0  0  0  0
   31.5930   92.8290   35.6210 C   0  0  0  0  0  0  0  0  0  0  0  0
   27.5230   93.7720   49.0430 C   0  0  0  0  0  0  0  0  0  0  0  0
   31.5280   90.9920   43.2900 C   0  0  0  0  0  0  0  0  0  0  0  0
   33.1580   97.2380   47.7030 C   0  0  0  0  0  0  0  0  0  0  0  0
   29.8190   93.3060   49.0450 C   0  0  0  0  0  0  0  0  0  0  0  0
   32.6420   95.3940   46.1840 C   0  0  0  0  0  0  0  0  0  0  0  0
   32.8350   94.8610   44.9670 C   0  0  3  0  0  0  0  0  0  0  0  0
   33.3810   96.4900   46.5750 C   0  0  0  0  0  0  0  0  0  0  0  0
   32.5260   93.9140   35.9460 C   0  0  0  0  0  0  0  0  0  0  0  0
   35.2890   90.7210   40.4500 O   0  0  0  0  0  0  0  0  0  0  0  0
   34.5500   90.9510   43.1080 C   0  0  0  0  0  0  0  0  0  0  0  0
  1 13  2  0  0  0  0
  1 21  1  0  0  0  0
  1 28  1  0  0  0  0
  2 22  1  0  0  0  0
  2 25  1  0  0  0  0
  3 25  1  0  0  0  0
  3 31  1  0  0  0  0
  3 32  1  0  0  0  0
  4  6  1  0  0  0  0
  4 31  1  0  0  0  0
  5 10  1  0  0  0  0
  5 16  1  0  0  0  0
  5 43  1  0  0  0  0
  6  9  1  0  0  0  0
  6 19  1  0  0  0  0
  7 13  1  0  0  0  0
  7 29  2  0  0  0  0
  7 37  1  0  0  0  0
  8 41  1  0  0  0  0
  9 39  1  0  0  0  0
 10 35  1  0  0  0  0
 11 32  2  0  0  0  0
 11 41  1  0  0  0  0
 12 13  1  0  0  0  0
 12 38  2  0  0  0  0
 14 27  1  0  0  0  0
 14 34  1  0  0  0  0
 14 37  2  0  0  0  0
 15 22  2  0  0  0  0
 15 33  1  0  0  0  0
 16 25  1  0  0  0  0
 16 42  2  0  0  0  0
 17 19  1  0  0  0  0
 17 35  1  0  0  0  0
 18 19  1  0  0  0  0
 18 39  1  0  0  0  0
 20 33  1  0  0  0  0
 21 36  1  0  0  0  0
 22 32  1  0  0  0  0
 23 43  3  0  0  0  0
 24 27  1  0  0  0  0
 24 30  1  0  0  0  0
 26 29  1  0  0  0  0
 26 34  2  0  0  0  0
 28 29  1  0  0  0  0
 30 34  1  0  0  0  0
 33 41  2  0  0  0  0
 36 40  2  0  0  0  0
 38 39  1  0  0  0  0
 38 40  1  0  0  0  0
M  END
>  <Original_Directory>
1nzw_A_rec_3n82_nad_lig_tt_min_0_pocket10

>  <Original_Filename>
1nzw_A_rec_3n82_nad_lig_tt_min_0_pocket10_gen_sample_6.sdf

>  <Molecule_ID>
sample_6

>  <logS>
-5.4089899

$$$$