/tmp/tmpc2oxiz_f
  MOE2022           3D

 19 21  0  0  1  0  0  0  0  0999 V2000
   21.2060   18.7890   67.8660 C   0  0  0  0  0  0  0  0  0  0  0  0
   18.0050   12.2620   66.6800 C   0  0  0  0  0  0  0  0  0  0  0  0
   18.4780   11.8110   67.9450 C   0  0  0  0  0  0  0  0  0  0  0  0
   18.9750   14.3930   67.1060 C   0  0  0  0  0  0  0  0  0  0  0  0
   21.2030   19.0650   69.2750 C   0  0  3  0  0  0  0  0  0  0  0  0
   18.7410   12.8070   68.9150 C   0  0  0  0  0  0  0  0  0  0  0  0
   23.2700   19.9390   69.7920 O   0  0  0  0  0  0  0  0  0  0  0  0
   16.5950   11.8220   66.3130 C   0  0  0  0  0  0  0  0  0  0  0  0
   21.2290   17.3290   67.4650 C   0  0  0  0  0  0  0  0  0  0  0  0
   18.5810   15.3280   69.4080 C   0  0  0  0  0  0  0  0  0  0  0  0
   18.7030   14.1420   68.4660 C   0  0  0  0  0  0  0  0  0  0  0  0
   20.3320   18.4380   70.2060 C   0  0  0  0  0  0  0  0  0  0  0  0
   19.8610   16.7120   67.7940 C   0  0  3  0  0  0  0  0  0  0  0  0
   19.9110   16.0890   69.2080 C   0  0  3  0  0  0  0  0  0  0  0  0
   21.5210   21.3350   69.7800 O   0  0  0  0  0  0  0  0  0  0  0  0
   22.0190   20.1970   69.6800 C   0  0  0  0  0  0  0  0  0  0  0  0
   20.0250   17.1060   70.3470 C   0  0  0  0  0  0  0  0  0  0  0  0
   19.6790   15.6590   66.6920 C   0  0  0  0  0  0  0  0  0  0  0  0
   18.5160   13.4630   66.1560 C   0  0  0  0  0  0  0  0  0  0  0  0
  1  5  1  0  0  0  0
  1  9  1  0  0  0  0
  2  3  1  0  0  0  0
  2  8  1  0  0  0  0
  2 19  2  0  0  0  0
  3  6  2  0  0  0  0
  4 11  2  0  0  0  0
  4 18  1  0  0  0  0
  4 19  1  0  0  0  0
  5 12  1  0  0  0  0
  5 16  1  0  0  0  0
  6 11  1  0  0  0  0
  7 16  1  0  0  0  0
  9 13  1  0  0  0  0
 10 11  1  0  0  0  0
 10 14  1  0  0  0  0
 12 17  1  0  0  0  0
 13 14  1  0  0  0  0
 13 18  1  0  0  0  0
 14 17  1  0  0  0  0
 15 16  2  0  0  0  0
M  END
>  <Original_Directory>
4cox_B_rec_3ln0_52b_lig_tt_min_0_pocket10

>  <Original_Filename>
4cox_B_rec_3ln0_52b_lig_tt_min_0_pocket10_gen_sample_1.sdf

>  <Molecule_ID>
sample_1

>  <logS>
-4.8193002

$$$$