/tmp/tmptq7kdxbz
  MOE2022           3D

 20 22  0  0  1  0  0  0  0  0999 V2000
   15.1490    6.6830   11.8670 C   0  0  0  0  0  0  0  0  0  0  0  0
   16.4270    4.6950   10.4540 C   0  0  0  0  0  0  0  0  0  0  0  0
   16.3030    3.4000    7.8980 C   0  0  0  0  0  0  0  0  0  0  0  0
   14.7290    6.2690   14.5850 C   0  0  0  0  0  0  0  0  0  0  0  0
   19.8330    3.3760   10.4910 C   0  0  0  0  0  0  0  0  0  0  0  0
   15.4770    6.8920   10.5300 C   0  0  0  0  0  0  0  0  0  0  0  0
   14.6490    7.5490   14.0620 C   0  0  0  0  0  0  0  0  0  0  0  0
   19.9330    1.7200    7.3400 F   0  0  0  0  0  0  0  0  0  0  0  0
   18.0530    1.9180    8.7170 C   0  0  0  0  0  0  0  0  0  0  0  0
   15.6860    4.3670   11.5870 C   0  0  0  0  0  0  0  0  0  0  0  0
   16.1670    5.9090    9.8280 C   0  0  0  0  0  0  0  0  0  0  0  0
   19.4140    1.9930    8.5420 C   0  0  0  0  0  0  0  0  0  0  0  0
   15.0920    5.2050   13.7750 C   0  0  0  0  0  0  0  0  0  0  0  0
   20.2370    2.5820    9.4650 C   0  0  0  0  0  0  0  0  0  0  0  0
   17.3030    3.0490    8.9400 C   0  0  0  0  0  0  0  0  0  0  0  0
   17.4660    3.8460   10.0680 C   0  0  0  0  0  0  0  0  0  0  0  0
   14.9160    7.7640   12.7170 C   0  0  0  0  0  0  0  0  0  0  0  0
   15.2830    5.4110   12.4120 C   0  0  0  0  0  0  0  0  0  0  0  0
   18.4430    4.0860   12.1920 O   0  0  0  0  0  0  0  0  0  0  0  0
   18.5800    3.7590   10.8950 C   0  0  3  0  0  0  0  0  0  0  0  0
  1  6  1  0  0  0  0
  1 17  2  0  0  0  0
  1 18  1  0  0  0  0
  2 10  2  0  0  0  0
  2 11  1  0  0  0  0
  2 16  1  0  0  0  0
  3 15  1  0  0  0  0
  4  7  2  0  0  0  0
  4 13  1  0  0  0  0
  5 14  2  0  0  0  0
  5 20  1  0  0  0  0
  6 11  2  0  0  0  0
  7 17  1  0  0  0  0
  8 12  1  0  0  0  0
  9 12  2  0  0  0  0
  9 15  1  0  0  0  0
 10 18  1  0  0  0  0
 12 14  1  0  0  0  0
 13 18  2  0  0  0  0
 15 16  2  0  0  0  0
 16 20  1  0  0  0  0
 19 20  1  0  0  0  0
M  END
>  <Original_Directory>
5ku8_A_rec_3owk_18e_lig_tt_min_0_pocket10

>  <Original_Filename>
5ku8_A_rec_3owk_18e_lig_tt_min_0_pocket10_gen_sample_9.sdf

>  <Molecule_ID>
sample_9

>  <logS>
-5.4293098

$$$$