/tmp/tmprsm67pyx
  MOE2022           3D

 18 18  0  0  0  0  0  0  0  0999 V2000
  -16.5680    0.6870  -29.1670 O   0  0  0  0  0  0  0  0  0  0  0  0
   -9.2940   -3.8280  -27.7340 C   0  0  0  0  0  0  0  0  0  0  0  0
   -8.9320   -2.5150  -27.8200 C   0  0  0  0  0  0  0  0  0  0  0  0
  -18.0120   -0.0760  -27.2430 O   0  0  0  0  0  0  0  0  0  0  0  0
  -15.4770   -2.4490  -27.3390 C   0  0  0  0  0  0  0  0  0  0  0  0
  -15.9150   -3.5400  -27.6580 O   0  0  0  0  0  0  0  0  0  0  0  0
  -10.9840   -1.4820  -28.7110 C   0  0  0  0  0  0  0  0  0  0  0  0
  -17.1950   -0.4830  -28.4330 P   0  0  0  0  0  0  0  0  0  0  0  0
  -13.2520   -1.7210  -27.9060 C   0  0  0  0  0  0  0  0  0  0  0  0
  -11.9740   -2.2920  -28.1770 C   0  0  0  0  0  0  0  0  0  0  0  0
  -13.6600   -2.4610  -25.7270 O   0  0  0  0  0  0  0  0  0  0  0  0
  -11.3060   -0.6830  -29.7660 O   0  0  0  0  0  0  0  0  0  0  0  0
   -9.6770   -1.4910  -28.2880 C   0  0  0  0  0  0  0  0  0  0  0  0
  -17.9330   -1.3480  -29.4210 O   0  0  0  0  0  0  0  0  0  0  0  0
  -11.7480   -3.6420  -28.0200 C   0  0  0  0  0  0  0  0  0  0  0  0
  -15.9390   -1.2840  -27.9400 O   0  0  0  0  0  0  0  0  0  0  0  0
  -14.0410   -2.2580  -26.9100 C   0  0  0  0  0  0  0  0  0  0  0  0
  -10.5710   -4.3060  -27.8740 C   0  0  0  0  0  0  0  0  0  0  0  0
  1  8  1  0  0  0  0
  2  3  1  0  0  0  0
  2 18  2  0  0  0  0
  3 13  1  0  0  0  0
  4  8  1  0  0  0  0
  5  6  2  0  0  0  0
  5 16  1  0  0  0  0
  5 17  1  0  0  0  0
  7 10  1  0  0  0  0
  7 12  1  0  0  0  0
  7 13  2  0  0  0  0
  8 14  2  0  0  0  0
  8 16  1  0  0  0  0
  9 10  1  0  0  0  0
  9 17  1  0  0  0  0
 10 15  2  0  0  0  0
 11 17  2  0  0  0  0
 15 18  1  0  0  0  0
M  END
>  <Original_Directory>
5ltz_A_rec_5lu6_i22_lig_tt_docked_1_pocket10

>  <Original_Filename>
5ltz_A_rec_5lu6_i22_lig_tt_docked_1_pocket10_gen_sample_5.sdf

>  <Molecule_ID>
sample_5

>  <logS>
-0.88626999

$$$$