/tmp/tmpfwxh3l6f
  MOE2022           3D

 19 21  0  0  1  0  0  0  0  0999 V2000
  -11.6530   20.0560    7.7750 C   0  0  0  0  0  0  0  0  0  0  0  0
  -11.1890   17.7430    7.5320 C   0  0  0  0  0  0  0  0  0  0  0  0
  -15.3780   14.8040    5.0630 O   0  0  0  0  0  0  0  0  0  0  0  0
  -10.4900   18.8970    9.6600 C   0  0  0  0  0  0  0  0  0  0  0  0
  -12.0220   21.2810    8.3420 C   0  0  0  0  0  0  0  0  0  0  0  0
  -11.6680   21.7640    9.5900 C   0  0  0  0  0  0  0  0  0  0  0  0
  -14.6170   17.0250    4.6890 C   0  0  0  0  0  0  0  0  0  0  0  0
  -13.5630   17.9360    4.7210 C   0  0  0  0  0  0  0  0  0  0  0  0
  -11.0500   18.9640    8.3870 C   0  0  3  0  0  0  0  0  0  0  0  0
  -12.6730   14.0200    5.0560 O   0  0  0  0  0  0  0  0  0  0  0  0
  -12.4160   17.5000    5.3820 C   0  0  3  0  0  0  0  0  0  0  0  0
  -11.0710   21.1080   10.6610 C   0  0  0  0  0  0  0  0  0  0  0  0
  -15.8870   17.4220    4.4890 O   0  0  0  0  0  0  0  0  0  0  0  0
  -11.9080   18.2690    6.3720 N   0  0  0  0  0  0  0  0  0  0  0  0
  -13.0140   15.2060    5.1210 C   0  0  0  0  0  0  0  0  0  0  0  0
  -12.0430   16.1820    5.2620 N   0  0  0  0  0  0  0  0  0  0  0  0
  -10.5830   19.7990   10.7000 C   0  0  0  0  0  0  0  0  0  0  0  0
  -11.9370   19.7360    6.3240 C   0  0  0  0  0  0  0  0  0  0  0  0
  -14.3400   15.6490    4.8500 C   0  0  0  0  0  0  0  0  0  0  0  0
  1  5  2  0  0  0  0
  1  9  1  0  0  0  0
  1 18  1  0  0  0  0
  2  9  1  0  0  0  0
  2 14  1  0  0  0  0
  3 19  1  0  0  0  0
  4  9  1  0  0  0  0
  4 17  2  0  0  0  0
  5  6  1  0  0  0  0
  6 12  2  0  0  0  0
  7  8  1  0  0  0  0
  7 13  1  0  0  0  0
  7 19  2  0  0  0  0
  8 11  1  0  0  0  0
 10 15  2  0  0  0  0
 11 14  1  0  0  0  0
 11 16  1  0  0  0  0
 12 17  1  0  0  0  0
 14 18  1  0  0  0  0
 15 16  1  0  0  0  0
 15 19  1  0  0  0  0
M  END
>  <Original_Directory>
2g5n_A_rec_2g8t_mi2_lig_tt_min_0_pocket10

>  <Original_Filename>
2g5n_A_rec_2g8t_mi2_lig_tt_min_0_pocket10_gen_sample_14.sdf

>  <Molecule_ID>
sample_14

>  <logS>
-1.0076801

$$$$