/tmp/tmpxtuupqm2
  MOE2022           3D

 40 45  0  0  1  0  0  0  0  0999 V2000
  -10.1060   13.3560   13.6770 C   0  0  2  0  0  0  0  0  0  0  0  0
   -5.8710   12.2060   18.8810 C   0  0  0  0  0  0  0  0  0  0  0  0
   -5.6350   10.1990   22.1620 C   0  0  0  0  0  0  0  0  0  0  0  0
    2.2170   16.0070   11.5100 C   0  0  0  0  0  0  0  0  0  0  0  0
   -1.3490   15.4190   10.6120 O   0  0  0  0  0  0  0  0  0  0  0  0
   -2.1040   13.7230   13.3600 C   0  0  0  0  0  0  0  0  0  0  0  0
   -7.1070   10.0550   19.6620 C   0  0  0  0  0  0  0  0  0  0  0  0
   -5.7570   13.6730   14.1250 C   0  0  0  0  0  0  0  0  0  0  0  0
  -11.0180   15.4970   14.3550 C   0  0  0  0  0  0  0  0  0  0  0  0
  -10.9830   12.3110   14.3720 C   0  0  0  0  0  0  0  0  0  0  0  0
   -7.3780    9.1510   20.7650 C   0  0  0  0  0  0  0  0  0  0  0  0
   -8.0630   13.4730   15.2320 C   0  0  0  0  0  0  0  0  0  0  0  0
   -3.3740   13.0340   13.4510 C   0  0  3  0  0  0  0  0  0  0  0  0
   -5.3450   11.1520   21.1250 C   0  0  0  0  0  0  0  0  0  0  0  0
   -9.2570   16.2780   12.2790 C   0  0  0  0  0  0  0  0  0  0  0  0
   -9.1140   14.0320   14.6350 C   0  0  3  0  0  0  0  0  0  0  0  0
  -10.2990   15.2110   11.9410 C   0  0  0  0  0  0  0  0  0  0  0  0
   -6.0680   12.3010   17.6040 C   0  0  0  0  0  0  0  0  0  0  0  0
   -6.5890   13.3950   15.2560 C   0  0  0  0  0  0  0  0  0  0  0  0
   -4.3550   12.9860   15.8620 C   0  0  0  0  0  0  0  0  0  0  0  0
   -6.1320   11.1320   19.9030 C   0  0  0  0  0  0  0  0  0  0  0  0
   -4.4240   13.2920   14.4680 C   0  0  3  0  0  0  0  0  0  0  0  0
   -3.0620   10.8320   12.4020 C   0  0  0  0  0  0  0  0  0  0  0  0
    0.3960   14.2080    9.6030 C   0  0  0  0  0  0  0  0  0  0  0  0
   -3.7210   12.0720   12.4860 C   0  0  0  0  0  0  0  0  0  0  0  0
   -8.7470   16.3380   13.7030 C   0  0  0  0  0  0  0  0  0  0  0  0
    2.4360   14.9150   12.3880 C   0  0  0  0  0  0  0  0  0  0  0  0
   -1.6680   10.7430   12.5520 C   0  0  0  0  0  0  0  0  0  0  0  0
   -3.7820    9.7070   12.1620 O   0  0  0  0  0  0  0  0  0  0  0  0
   -0.9780   13.1980   12.6080 C   0  0  0  0  0  0  0  0  0  0  0  0
   -0.0100   14.9740   10.8560 C   0  0  2  0  0  0  0  0  0  0  0  0
   -9.5230   15.5350   14.7850 C   0  0  3  0  0  0  0  0  0  0  0  0
  -10.9790   14.5240   13.1590 C   0  0  3  0  0  0  0  0  0  0  0  0
    0.1030   14.0820   12.1100 C   0  0  3  0  0  0  0  0  0  0  0  0
   -6.4990    9.0930   21.8850 C   0  0  0  0  0  0  0  0  0  0  0  0
    1.3960   13.9890   12.7120 C   0  0  0  0  0  0  0  0  0  0  0  0
   -0.8160   11.8280   12.3940 C   0  0  0  0  0  0  0  0  0  0  0  0
    0.8530   16.2410   10.9920 C   0  0  0  0  0  0  0  0  0  0  0  0
   -5.6940   12.9150   16.3190 C   0  0  0  0  0  0  0  0  0  0  0  0
   -9.3910   12.6560   12.6060 N   0  0  0  0  0  0  0  0  0  0  0  0
  1 10  1  0  0  0  0
  1 16  1  0  0  0  0
  1 33  1  0  0  0  0
  1 40  1  0  0  0  0
  2 18  1  0  0  0  0
  2 21  1  0  0  0  0
  3 14  2  0  0  0  0
  3 35  1  0  0  0  0
  4 27  2  0  0  0  0
  4 38  1  0  0  0  0
  5 31  1  0  0  0  0
  6 13  1  0  0  0  0
  6 30  2  0  0  0  0
  7 11  1  0  0  0  0
  7 21  2  0  0  0  0
  8 19  1  0  0  0  0
  8 22  1  0  0  0  0
  9 32  1  0  0  0  0
  9 33  1  0  0  0  0
 11 35  2  0  0  0  0
 12 16  1  0  0  0  0
 12 19  1  0  0  0  0
 13 22  1  0  0  0  0
 13 25  1  0  0  0  0
 14 21  1  0  0  0  0
 15 17  1  0  0  0  0
 15 26  2  0  0  0  0
 16 32  1  0  0  0  0
 17 33  1  0  0  0  0
 18 39  1  0  0  0  0
 19 39  2  0  0  0  0
 20 22  1  0  0  0  0
 20 39  1  0  0  0  0
 23 25  2  0  0  0  0
 23 28  1  0  0  0  0
 23 29  1  0  0  0  0
 24 31  1  0  0  0  0
 26 32  1  0  0  0  0
 27 36  1  0  0  0  0
 28 37  2  0  0  0  0
 30 34  1  0  0  0  0
 30 37  1  0  0  0  0
 31 34  1  0  0  0  0
 31 38  1  0  0  0  0
 34 36  1  0  0  0  0
M  END
>  <Original_Directory>
5k8x_B_rec_5is9_6d3_lig_tt_min_0_pocket10

>  <Original_Filename>
5k8x_B_rec_5is9_6d3_lig_tt_min_0_pocket10_gen_sample_8.sdf

>  <Molecule_ID>
sample_8

>  <logS>
-5.4860101

$$$$