/tmp/tmpbtkie8pq
  MOE2022           3D

 29 33  0  0  1  0  0  0  0  0999 V2000
   10.0790    5.7790   16.5860 C   0  0  0  0  0  0  0  0  0  0  0  0
    3.2740    9.0790   18.8410 C   0  0  0  0  0  0  0  0  0  0  0  0
    6.4520    5.4900   16.5940 C   0  0  0  0  0  0  0  0  0  0  0  0
    3.8140    5.0480   14.7190 C   0  0  0  0  0  0  0  0  0  0  0  0
    1.0380    8.2640   20.2670 F   0  0  0  0  0  0  0  0  0  0  0  0
   11.0000    6.5820   15.9130 C   0  0  0  0  0  0  0  0  0  0  0  0
    1.2890    7.7050   19.0420 C   0  0  2  0  0  0  0  0  0  0  0  0
    0.0800    7.2850   18.4330 O   0  0  0  0  0  0  0  0  0  0  0  0
    7.7480    9.5690   18.0770 C   0  0  0  0  0  0  0  0  0  0  0  0
    5.9620    4.4410   15.8060 C   0  0  0  0  0  0  0  0  0  0  0  0
    9.3780    8.3830   15.8320 C   0  0  0  0  0  0  0  0  0  0  0  0
    4.9160    4.2290   14.9550 C   0  0  0  0  0  0  0  0  0  0  0  0
    8.7790    6.2500   16.8140 C   0  0  0  0  0  0  0  0  0  0  0  0
    7.7570    5.3280   17.1280 C   0  0  0  0  0  0  0  0  0  0  0  0
    5.7210    6.7040   16.8320 C   0  0  0  0  0  0  0  0  0  0  0  0
    4.1550    8.0070   19.0430 N   0  0  0  0  0  0  0  0  0  0  0  0
    7.5120    8.3230   17.4790 C   0  0  0  0  0  0  0  0  0  0  0  0
    2.1660    6.4790   19.2570 C   0  0  0  0  0  0  0  0  0  0  0  0
    1.9700    8.7160   18.1140 C   0  0  0  0  0  0  0  0  0  0  0  0
    6.2480    7.7140   17.7480 C   0  0  0  0  0  0  0  0  0  0  0  0
    7.1010    9.8550   19.2660 C   0  0  0  0  0  0  0  0  0  0  0  0
    3.7460    6.3160   15.2540 C   0  0  0  0  0  0  0  0  0  0  0  0
    4.5330    6.9810   16.1480 C   0  0  0  0  0  0  0  0  0  0  0  0
    3.4870   10.1710   19.3250 O   0  0  0  0  0  0  0  0  0  0  0  0
   10.6480    7.8750   15.5320 C   0  0  0  0  0  0  0  0  0  0  0  0
    3.6400    6.7260   19.5660 C   0  0  0  0  0  0  0  0  0  0  0  0
    8.5370    7.6590   16.6960 C   0  0  0  0  0  0  0  0  0  0  0  0
    6.1840    8.9910   19.7930 N   0  0  0  0  0  0  0  0  0  0  0  0
    5.5240    8.2290   18.8620 C   0  0  3  0  0  0  0  0  0  0  0  0
  1  6  1  0  0  0  0
  1 13  2  0  0  0  0
  2 16  1  0  0  0  0
  2 19  1  0  0  0  0
  2 24  2  0  0  0  0
  3 10  1  0  0  0  0
  3 14  2  0  0  0  0
  3 15  1  0  0  0  0
  4 12  1  0  0  0  0
  4 22  2  0  0  0  0
  5  7  1  0  0  0  0
  6 25  2  0  0  0  0
  7  8  1  0  0  0  0
  7 18  1  0  0  0  0
  7 19  1  0  0  0  0
  9 17  1  0  0  0  0
  9 21  2  0  0  0  0
 10 12  2  0  0  0  0
 11 25  1  0  0  0  0
 11 27  2  0  0  0  0
 13 14  1  0  0  0  0
 13 27  1  0  0  0  0
 15 20  1  0  0  0  0
 15 23  2  0  0  0  0
 16 26  1  0  0  0  0
 16 29  1  0  0  0  0
 17 20  2  0  0  0  0
 17 27  1  0  0  0  0
 18 26  1  0  0  0  0
 20 29  1  0  0  0  0
 21 28  1  0  0  0  0
 22 23  1  0  0  0  0
 28 29  1  0  0  0  0
M  END
>  <Original_Directory>
3u9n_A_rec_2hxl_422_lig_tt_min_0_pocket10

>  <Original_Filename>
3u9n_A_rec_2hxl_422_lig_tt_min_0_pocket10_gen_sample_19.sdf

>  <Molecule_ID>
sample_19

>  <logS>
-4.7424402

$$$$