/tmp/tmpo6amf9je
  MOE2022           3D

 30 34  0  0  1  0  0  0  0  0999 V2000
   14.9140    7.8330    7.1690 O   0  0  0  0  0  0  0  0  0  0  0  0
   18.0420   11.4350    1.7650 C   0  0  3  0  0  0  0  0  0  0  0  0
   14.7350    9.7660    3.5530 C   0  0  0  0  0  0  0  0  0  0  0  0
   13.6430    9.0640    5.6010 C   0  0  0  0  0  0  0  0  0  0  0  0
   14.1140    9.9740   -2.8230 C   0  0  3  0  0  0  0  0  0  0  0  0
   16.3990    9.6200   -2.0920 O   0  0  0  0  0  0  0  0  0  0  0  0
   12.7230    9.3780   -3.0920 C   0  0  3  0  0  0  0  0  0  0  0  0
   15.9240   10.1230    1.4760 C   0  0  3  0  0  0  0  0  0  0  0  0
   15.9670    9.5880    4.1830 C   0  0  0  0  0  0  0  0  0  0  0  0
   13.7180   10.0450   -5.2470 C   0  0  0  0  0  0  0  0  0  0  0  0
   14.6690    9.1440   -0.4730 C   0  0  2  0  0  0  0  0  0  0  0  0
   16.0440    8.9930    5.4310 C   0  0  0  0  0  0  0  0  0  0  0  0
   15.0560    9.1530   -1.9530 C   0  0  3  0  0  0  0  0  0  0  0  0
   14.3590    7.8190   -0.0670 O   0  0  0  0  0  0  0  0  0  0  0  0
   17.9730   10.8780   -0.7670 C   0  0  0  0  0  0  0  0  0  0  0  0
   14.7060   10.1180    2.1730 C   0  0  3  0  0  0  0  0  0  0  0  0
   14.7080   10.4100   -4.1520 C   0  0  0  0  0  0  0  0  0  0  0  0
   12.4650    9.6200   -4.5520 C   0  0  0  0  0  0  0  0  0  0  0  0
   18.8130   11.0130    0.5020 C   0  0  3  0  0  0  0  0  0  0  0  0
   13.5700    9.5670    4.3040 C   0  0  0  0  0  0  0  0  0  0  0  0
   19.8490   11.9520    0.2620 O   0  0  0  0  0  0  0  0  0  0  0  0
   13.5000   10.0550   -0.0930 C   0  0  0  0  0  0  0  0  0  0  0  0
   11.4220    9.2910   -5.1240 O   0  0  0  0  0  0  0  0  0  0  0  0
   17.3980   12.8070    1.6320 C   0  0  0  0  0  0  0  0  0  0  0  0
   17.0750   10.4620    2.1280 O   0  0  0  0  0  0  0  0  0  0  0  0
   12.5910    7.8760   -2.8750 C   0  0  0  0  0  0  0  0  0  0  0  0
   15.9540    9.6190    0.1600 C   0  0  3  0  0  0  0  0  0  0  0  0
   14.8860    8.7150    6.1290 C   0  0  0  0  0  0  0  0  0  0  0  0
   13.4300   10.3760    1.4060 C   0  0  0  0  0  0  0  0  0  0  0  0
   17.0750    9.6530   -0.8290 C   0  0  3  0  0  0  0  0  0  0  0  0
  1 28  1  0  0  0  0
  2 19  1  0  0  0  0
  2 24  1  0  0  0  0
  2 25  1  0  0  0  0
  3  9  1  0  0  0  0
  3 16  1  0  0  0  0
  3 20  2  0  0  0  0
  4 20  1  0  0  0  0
  4 28  2  0  0  0  0
  5  7  1  0  0  0  0
  5 13  1  0  0  0  0
  5 17  1  0  0  0  0
  6 13  1  0  0  0  0
  6 30  1  0  0  0  0
  7 18  1  0  0  0  0
  7 26  1  0  0  0  0
  8 16  1  0  0  0  0
  8 25  1  0  0  0  0
  8 27  1  0  0  0  0
  9 12  2  0  0  0  0
 10 17  1  0  0  0  0
 10 18  1  0  0  0  0
 11 13  1  0  0  0  0
 11 14  1  0  0  0  0
 11 22  1  0  0  0  0
 11 27  1  0  0  0  0
 12 28  1  0  0  0  0
 15 19  1  0  0  0  0
 15 30  1  0  0  0  0
 16 29  1  0  0  0  0
 18 23  2  0  0  0  0
 19 21  1  0  0  0  0
 22 29  1  0  0  0  0
 27 30  1  0  0  0  0
M  END
>  <Original_Directory>
4efk_A_rec_3ivx_fg6_lig_tt_min_0_pocket10

>  <Original_Filename>
4efk_A_rec_3ivx_fg6_lig_tt_min_0_pocket10_gen_sample_13.sdf

>  <Molecule_ID>
sample_13

>  <logS>
-2.9919901

$$$$