/tmp/tmpjm5j6y4o
  MOE2022           3D

 27 29  0  0  0  0  0  0  0  0999 V2000
   78.2940   33.1570   -9.4630 C   0  0  0  0  0  0  0  0  0  0  0  0
   72.2810   31.8230   -6.7150 C   0  0  0  0  0  0  0  0  0  0  0  0
   73.8130   31.6470   -4.9000 C   0  0  0  0  0  0  0  0  0  0  0  0
   74.5110   31.0260   -7.1080 C   0  0  0  0  0  0  0  0  0  0  0  0
   72.6850   32.2320   -5.4470 C   0  0  0  0  0  0  0  0  0  0  0  0
   76.0270   37.1910  -11.5420 C   0  0  0  0  0  0  0  0  0  0  0  0
   75.0230   37.5680   -9.3580 C   0  0  0  0  0  0  0  0  0  0  0  0
   76.0990   37.8280  -10.1740 C   0  0  0  0  0  0  0  0  0  0  0  0
   76.3730   35.7200  -11.5610 C   0  0  0  0  0  0  0  0  0  0  0  0
   76.2050   31.9590   -8.7500 C   0  0  0  0  0  0  0  0  0  0  0  0
   74.7150   30.9960   -5.7300 C   0  0  0  0  0  0  0  0  0  0  0  0
   79.1580   37.2120  -10.3050 C   0  0  0  0  0  0  0  0  0  0  0  0
   75.6750   30.7240   -8.0320 C   0  0  0  0  0  0  0  0  0  0  0  0
   77.1620   38.6240   -9.7930 C   0  0  0  0  0  0  0  0  0  0  0  0
   74.4670   38.4770   -8.4950 C   0  0  0  0  0  0  0  0  0  0  0  0
   78.6290   36.0240  -10.3070 C   0  0  0  0  0  0  0  0  0  0  0  0
   77.5560   35.1830  -10.7730 C   0  0  0  0  0  0  0  0  0  0  0  0
   77.2000   39.4490   -8.7010 C   0  0  0  0  0  0  0  0  0  0  0  0
   78.5110   38.5630  -10.5240 C   0  0  0  0  0  0  0  0  0  0  0  0
   72.0500   35.3910   -3.5390 O   0  0  0  0  0  0  0  0  0  0  0  0
   72.7810   34.4340   -4.2940 C   0  0  0  0  0  0  0  0  0  0  0  0
   77.5500   33.8200  -10.6030 C   0  0  0  0  0  0  0  0  0  0  0  0
   77.6490   31.7920   -9.2070 C   0  0  0  0  0  0  0  0  0  0  0  0
   71.8810   33.2550   -4.6710 C   0  0  0  0  0  0  0  0  0  0  0  0
   73.2170   31.2310   -7.5620 C   0  0  0  0  0  0  0  0  0  0  0  0
   76.1620   40.1600   -8.1780 C   0  0  0  0  0  0  0  0  0  0  0  0
   74.8630   39.7650   -8.2870 C   0  0  0  0  0  0  0  0  0  0  0  0
  1 22  1  0  0  0  0
  1 23  1  0  0  0  0
  2  5  2  0  0  0  0
  2 25  1  0  0  0  0
  3  5  1  0  0  0  0
  3 11  2  0  0  0  0
  4 11  1  0  0  0  0
  4 13  1  0  0  0  0
  4 25  2  0  0  0  0
  5 24  1  0  0  0  0
  6  8  1  0  0  0  0
  6  9  1  0  0  0  0
  7  8  2  0  0  0  0
  7 15  1  0  0  0  0
  8 14  1  0  0  0  0
  9 17  1  0  0  0  0
 10 13  1  0  0  0  0
 10 23  1  0  0  0  0
 12 16  1  0  0  0  0
 12 19  1  0  0  0  0
 14 18  2  0  0  0  0
 14 19  1  0  0  0  0
 15 27  1  0  0  0  0
 16 17  2  0  0  0  0
 17 22  1  0  0  0  0
 18 26  1  0  0  0  0
 20 21  1  0  0  0  0
 21 24  1  0  0  0  0
 26 27  2  0  0  0  0
M  END
>  <Original_Directory>
3udl_A_rec_4eo8_0s3_lig_tt_docked_0_pocket10

>  <Original_Filename>
3udl_A_rec_4eo8_0s3_lig_tt_docked_0_pocket10_gen_sample_12.sdf

>  <Molecule_ID>
sample_12

>  <logS>
-6.63346

$$$$