/tmp/tmpa18eq8zv
  MOE2022           3D

 18 21  0  0  1  0  0  0  0  0999 V2000
   12.7460    5.1040   22.2680 O   0  0  0  0  0  0  0  0  0  0  0  0
   10.8410    5.8180   20.3600 O   0  0  0  0  0  0  0  0  0  0  0  0
   12.0560    9.0290   21.5190 O   0  0  0  0  0  0  0  0  0  0  0  0
   15.2800    7.1050   21.0320 C   0  0  0  0  0  0  0  0  0  0  0  0
   12.2710    7.4430   19.5020 O   0  0  0  0  0  0  0  0  0  0  0  0
   14.6870    8.3340   21.6380 O   0  0  0  0  0  0  0  0  0  0  0  0
   13.4410    8.8310   21.2140 C   0  0  0  0  0  0  0  0  0  0  0  0
   14.1700    9.4090   19.0510 O   0  0  0  0  0  0  0  0  0  0  0  0
   14.1780    6.0480   20.6540 C   0  0  3  0  0  0  0  0  0  0  0  0
   13.8780    8.4760   22.4340 O   0  0  0  0  0  0  0  0  0  0  0  0
   14.5500    8.0320   18.8540 C   0  0  3  0  0  0  0  0  0  0  0  0
   14.8660    4.8820   20.6040 F   0  0  0  0  0  0  0  0  0  0  0  0
   13.2960    8.4240   19.6390 C   0  0  2  0  0  0  0  0  0  0  0  0
   11.2900    7.8270   21.6190 C   0  0  0  0  0  0  0  0  0  0  0  0
   11.8560    6.7540   20.6890 C   0  0  1  0  0  0  0  0  0  0  0  0
   16.3910    6.4520   18.8710 O   0  0  0  0  0  0  0  0  0  0  0  0
   13.0370    6.0720   21.3190 C   0  0  3  0  0  0  0  0  0  0  0  0
   15.7370    7.4540   19.6280 C   0  0  3  0  0  0  0  0  0  0  0  0
  1 17  1  0  0  0  0
  2 15  1  0  0  0  0
  3  7  1  0  0  0  0
  3 14  1  0  0  0  0
  4  9  1  0  0  0  0
  4 18  1  0  0  0  0
  5 13  1  0  0  0  0
  5 15  1  0  0  0  0
  6  7  1  0  0  0  0
  6 10  1  0  0  0  0
  7 10  1  0  0  0  0
  7 13  1  0  0  0  0
  8 11  1  0  0  0  0
  8 13  1  0  0  0  0
  9 12  1  0  0  0  0
  9 17  1  0  0  0  0
 11 13  1  0  0  0  0
 11 18  1  0  0  0  0
 14 15  1  0  0  0  0
 15 17  1  0  0  0  0
 16 18  1  0  0  0  0
M  END
>  <Original_Directory>
4y2x_A_rec_4y2t_49q_lig_tt_docked_2_pocket10

>  <Original_Filename>
4y2x_A_rec_4y2t_49q_lig_tt_docked_2_pocket10_gen_sample_16.sdf

>  <Molecule_ID>
sample_16

>  <logS>
-1.1526999

$$$$