/tmp/tmpfbqtg1p8
  MOE2022           3D

 12 12  0  0  0  0  0  0  0  0999 V2000
   31.3020   44.0990   18.2920 O   0  0  0  0  0  0  0  0  0  0  0  0
   29.0630   43.2560   18.5140 C   0  0  0  0  0  0  0  0  0  0  0  0
   30.1270   44.7970   20.0050 O   0  0  0  0  0  0  0  0  0  0  0  0
   28.2720   43.9320   17.4490 C   0  0  0  0  0  0  0  0  0  0  0  0
   28.0970   45.9130   16.1350 C   0  0  0  0  0  0  0  0  0  0  0  0
   27.4800   43.7870   15.1880 C   0  0  0  0  0  0  0  0  0  0  0  0
   27.6550   45.1610   15.0570 C   0  0  0  0  0  0  0  0  0  0  0  0
   28.2230   45.3210   17.3880 C   0  0  0  0  0  0  0  0  0  0  0  0
   27.7350   43.1790   16.4120 C   0  0  0  0  0  0  0  0  0  0  0  0
   30.2640   44.0890   18.9820 C   0  0  0  0  0  0  0  0  0  0  0  0
   28.6640   42.3160   19.1570 O   0  0  0  0  0  0  0  0  0  0  0  0
   27.5470   41.8310   16.5450 O   0  0  0  0  0  0  0  0  0  0  0  0
  1 10  2  0  0  0  0
  2  4  1  0  0  0  0
  2 10  1  0  0  0  0
  2 11  2  0  0  0  0
  3 10  1  0  0  0  0
  4  8  2  0  0  0  0
  4  9  1  0  0  0  0
  5  7  2  0  0  0  0
  5  8  1  0  0  0  0
  6  7  1  0  0  0  0
  6  9  2  0  0  0  0
  9 12  1  0  0  0  0
M  END
>  <Original_Directory>
2an3_A_rec_2an3_ctl_lig_tt_min_0_pocket10

>  <Original_Filename>
2an3_A_rec_2an3_ctl_lig_tt_min_0_pocket10_gen_sample_13.sdf

>  <Molecule_ID>
sample_13

>  <logS>
-1.32368

$$$$