/tmp/tmpaf_8q1cm
  MOE2022           3D

 23 25  0  0  1  0  0  0  0  0999 V2000
  -13.9800  -26.3860   12.1150 C   0  0  3  0  0  0  0  0  0  0  0  0
  -16.9290  -31.0880   11.7460 C   0  0  0  0  0  0  0  0  0  0  0  0
  -11.3570  -28.2040   14.8230 C   0  0  3  0  0  0  0  0  0  0  0  0
  -11.7860  -26.3970   13.1000 C   0  0  0  0  0  0  0  0  0  0  0  0
  -15.7780  -30.6540   13.9330 C   0  0  3  0  0  0  0  0  0  0  0  0
  -14.1420  -28.8910   13.9930 N   0  0  0  0  0  0  0  0  0  0  0  0
  -11.3290  -29.8180   13.0750 O   0  0  0  0  0  0  0  0  0  0  0  0
  -14.5090  -26.5650   13.4330 C   0  0  0  0  0  0  0  0  0  0  0  0
  -15.9670  -30.5330   15.3250 O   0  0  0  0  0  0  0  0  0  0  0  0
  -14.5860  -27.0580   10.9190 C   0  0  0  0  0  0  0  0  0  0  0  0
  -16.9760  -32.6940   13.4480 O   0  0  0  0  0  0  0  0  0  0  0  0
  -13.6680  -27.6510   13.8840 C   0  0  3  0  0  0  0  0  0  0  0  0
  -10.6060  -30.4180   15.0430 O   0  0  0  0  0  0  0  0  0  0  0  0
  -11.9510  -28.3470   16.1170 O   0  0  0  0  0  0  0  0  0  0  0  0
  -15.7120  -28.0580   11.1940 C   0  0  0  0  0  0  0  0  0  0  0  0
  -17.8170  -31.4920   11.0030 O   0  0  0  0  0  0  0  0  0  0  0  0
  -12.6460  -25.9120   12.0860 C   0  0  0  0  0  0  0  0  0  0  0  0
  -12.2930  -27.3740   13.9490 C   0  0  0  0  0  0  0  0  0  0  0  0
  -15.4090  -29.2790   13.3770 C   0  0  3  0  0  0  0  0  0  0  0  0
  -15.1970  -29.3470   11.8580 C   0  0  3  0  0  0  0  0  0  0  0  0
  -11.0860  -29.5710   14.2690 C   0  0  0  0  0  0  0  0  0  0  0  0
  -15.7990  -30.4820   11.2400 O   0  0  0  0  0  0  0  0  0  0  0  0
  -16.9910  -31.2820   13.2480 C   0  0  3  0  0  0  0  0  0  0  0  0
  1  8  1  0  0  0  0
  1 10  1  0  0  0  0
  1 17  1  0  0  0  0
  2 16  2  0  0  0  0
  2 22  1  0  0  0  0
  2 23  1  0  0  0  0
  3 14  1  0  0  0  0
  3 18  1  0  0  0  0
  3 21  1  0  0  0  0
  4 17  1  0  0  0  0
  4 18  2  0  0  0  0
  5  9  1  0  0  0  0
  5 19  1  0  0  0  0
  5 23  1  0  0  0  0
  6 12  1  0  0  0  0
  6 19  1  0  0  0  0
  7 21  2  0  0  0  0
  8 12  1  0  0  0  0
 10 15  1  0  0  0  0
 11 23  1  0  0  0  0
 12 18  1  0  0  0  0
 13 21  1  0  0  0  0
 15 20  1  0  0  0  0
 19 20  1  0  0  0  0
 20 22  1  0  0  0  0
M  END
>  <Original_Directory>
1b9v_A_rec_1b9t_rai_lig_tt_min_0_pocket10

>  <Original_Filename>
1b9v_A_rec_1b9t_rai_lig_tt_min_0_pocket10_gen_sample_1.sdf

>  <Molecule_ID>
sample_1

>  <logS>
-0.99281001

$$$$