/tmp/tmp1zij8_hl
  MOE2022           3D

 27 29  0  0  1  0  0  0  0  0999 V2000
   18.9380  -17.1550  -11.2590 C   0  0  0  0  0  0  0  0  0  0  0  0
   19.1020  -15.5300  -13.0180 C   0  0  0  0  0  0  0  0  0  0  0  0
   19.6220  -20.3950  -11.3450 C   0  0  0  0  0  0  0  0  0  0  0  0
   16.2090  -15.1570  -11.0850 O   0  0  0  0  0  0  0  0  0  0  0  0
   16.9050  -11.2430  -15.4610 O   0  0  0  0  0  0  0  0  0  0  0  0
   16.9440  -14.6510  -14.0600 C   0  0  3  0  0  0  0  0  0  0  0  0
   18.6610  -21.6810   -9.5220 C   0  0  3  0  0  0  0  0  0  0  0  0
   18.4990  -22.1490   -7.1030 N   0  0  0  0  0  0  0  0  0  0  0  0
   16.6990  -20.6200   -7.5820 N   0  0  0  0  0  0  0  0  0  0  0  0
   19.6890  -21.7320  -10.6390 C   0  0  0  0  0  0  0  0  0  0  0  0
   19.7270  -16.3280  -12.0490 C   0  0  0  0  0  0  0  0  0  0  0  0
   18.4560  -13.7120  -15.7050 O   0  0  0  0  0  0  0  0  0  0  0  0
   16.7550  -18.1180  -11.5050 O   0  0  0  0  0  0  0  0  0  0  0  0
   17.5960  -13.3900  -14.6600 C   0  0  0  0  0  0  0  0  0  0  0  0
   17.7340  -15.2880  -12.9420 C   0  0  0  0  0  0  0  0  0  0  0  0
   17.5620  -17.0750  -11.4590 C   0  0  0  0  0  0  0  0  0  0  0  0
   15.6220  -14.3810  -13.6260 O   0  0  0  0  0  0  0  0  0  0  0  0
   19.1550  -22.4910   -8.3420 C   0  0  0  0  0  0  0  0  0  0  0  0
   18.7710  -19.4720  -10.5070 C   0  0  3  0  0  0  0  0  0  0  0  0
   16.5410  -12.4400  -15.2390 C   0  0  0  0  0  0  0  0  0  0  0  0
   16.9360  -20.0500   -8.8940 C   0  0  0  0  0  0  0  0  0  0  0  0
   15.5020  -12.9140  -15.7260 O   0  0  0  0  0  0  0  0  0  0  0  0
   18.3530  -12.7270  -13.6710 O   0  0  0  0  0  0  0  0  0  0  0  0
   17.0720  -15.8330  -11.8370 C   0  0  0  0  0  0  0  0  0  0  0  0
   18.4080  -20.2200   -9.2410 C   0  0  3  0  0  0  0  0  0  0  0  0
   17.5790  -21.2800   -6.9180 C   0  0  0  0  0  0  0  0  0  0  0  0
   19.4580  -18.1270  -10.2330 C   0  0  0  0  0  0  0  0  0  0  0  0
  1 11  1  0  0  0  0
  1 16  2  0  0  0  0
  1 27  1  0  0  0  0
  2 11  2  0  0  0  0
  2 15  1  0  0  0  0
  3 10  1  0  0  0  0
  3 19  1  0  0  0  0
  4 24  1  0  0  0  0
  5 20  1  0  0  0  0
  6 14  1  0  0  0  0
  6 15  1  0  0  0  0
  6 17  1  0  0  0  0
  7 10  1  0  0  0  0
  7 18  1  0  0  0  0
  7 25  1  0  0  0  0
  8 18  1  0  0  0  0
  8 26  1  0  0  0  0
  9 21  1  0  0  0  0
  9 26  1  0  0  0  0
 12 14  1  0  0  0  0
 13 16  1  0  0  0  0
 14 20  1  0  0  0  0
 14 23  1  0  0  0  0
 15 24  2  0  0  0  0
 16 24  1  0  0  0  0
 19 25  1  0  0  0  0
 19 27  1  0  0  0  0
 20 22  2  0  0  0  0
 21 25  1  0  0  0  0
M  END
>  <Original_Directory>
4elv_A_rec_4dle_dct_lig_tt_min_0_pocket10

>  <Original_Filename>
4elv_A_rec_4dle_dct_lig_tt_min_0_pocket10_gen_sample_13.sdf

>  <Molecule_ID>
sample_13

>  <logS>
-0.59679002

$$$$