/tmp/tmpw_ut939o
  MOE2022           3D

 19 20  0  0  1  0  0  0  0  0999 V2000
   24.3920  123.1000   41.4730 O   0  0  0  0  0  0  0  0  0  0  0  0
   19.9990  123.3920   43.6810 O   0  0  0  0  0  0  0  0  0  0  0  0
   24.3520  125.5460   40.8930 C   0  0  0  0  0  0  0  0  0  0  0  0
   21.1010  122.9650   40.6170 C   0  0  3  0  0  0  0  0  0  0  0  0
   25.7970  127.8970   39.6700 C   0  0  0  0  0  0  0  0  0  0  0  0
   24.7000  128.5350   40.2000 C   0  0  0  0  0  0  0  0  0  0  0  0
   20.0680  124.1120   42.6500 C   0  0  0  0  0  0  0  0  0  0  0  0
   22.3610  126.0750   42.1310 C   0  0  0  0  0  0  0  0  0  0  0  0
   26.3060  126.6880   40.1010 O   0  0  0  0  0  0  0  0  0  0  0  0
   23.6120  127.9680   40.8870 C   0  0  0  0  0  0  0  0  0  0  0  0
   22.5610  128.7960   41.1270 O   0  0  0  0  0  0  0  0  0  0  0  0
   21.2210  123.8590   41.6920 C   0  0  3  0  0  0  0  0  0  0  0  0
   22.4870  124.5710   42.0400 C   0  0  3  0  0  0  0  0  0  0  0  0
   22.0420  121.9890   40.3880 O   0  0  0  0  0  0  0  0  0  0  0  0
   19.9010  122.7910   39.7200 C   0  0  0  0  0  0  0  0  0  0  0  0
   23.5360  126.6110   41.3720 C   0  0  0  0  0  0  0  0  0  0  0  0
   23.6370  124.2390   41.1250 C   0  0  3  0  0  0  0  0  0  0  0  0
   19.2800  125.0750   42.4260 O   0  0  0  0  0  0  0  0  0  0  0  0
   25.4500  125.5850   40.0700 C   0  0  0  0  0  0  0  0  0  0  0  0
  1 17  1  0  0  0  0
  2  7  1  0  0  0  0
  3 16  1  0  0  0  0
  3 17  1  0  0  0  0
  3 19  2  0  0  0  0
  4 12  1  0  0  0  0
  4 14  1  0  0  0  0
  4 15  1  0  0  0  0
  5  6  2  0  0  0  0
  5  9  1  0  0  0  0
  6 10  1  0  0  0  0
  7 12  1  0  0  0  0
  7 18  2  0  0  0  0
  8 13  1  0  0  0  0
  8 16  1  0  0  0  0
  9 19  1  0  0  0  0
 10 11  1  0  0  0  0
 10 16  2  0  0  0  0
 12 13  1  0  0  0  0
 13 17  1  0  0  0  0
M  END
>  <Original_Directory>
1rct_E_rec_2oc4_imh_lig_tt_min_0_pocket10

>  <Original_Filename>
1rct_E_rec_2oc4_imh_lig_tt_min_0_pocket10_gen_sample_10.sdf

>  <Molecule_ID>
sample_10

>  <logS>
-0.19447

$$$$