/tmp/tmp08a1ypvi
  MOE2022           3D

 26 27  0  0  1  0  0  0  0  0999 V2000
   29.1080   16.7120   27.7320 O   0  0  0  0  0  0  0  0  0  0  0  0
   30.2240   16.1670   23.7160 C   0  0  3  0  0  0  0  0  0  0  0  0
   27.1400   18.0470   28.3410 O   0  0  0  0  0  0  0  0  0  0  0  0
   31.7880   17.1450   20.5300 C   0  0  0  0  0  0  0  0  0  0  0  0
   35.8650   16.0110   20.3520 O   0  0  0  0  0  0  0  0  0  0  0  0
   33.4640   17.0020   22.7350 O   0  0  0  0  0  0  0  0  0  0  0  0
   27.3920   15.7720   29.2540 O   0  0  0  0  0  0  0  0  0  0  0  0
   32.1480   17.5430   23.0310 C   0  0  3  0  0  0  0  0  0  0  0  0
   27.5290   15.0140   26.0680 N   0  0  0  0  0  0  0  0  0  0  0  0
   30.6100   18.8340   21.7370 O   0  0  0  0  0  0  0  0  0  0  0  0
   31.9140   18.0330   19.6700 O   0  0  0  0  0  0  0  0  0  0  0  0
   27.6710   16.6690   28.1050 P   0  0  0  0  0  0  0  0  0  0  0  0
   28.6440   15.0610   25.3700 C   0  0  0  0  0  0  0  0  0  0  0  0
   33.8300   16.4560   21.4470 C   0  0  3  0  0  0  0  0  0  0  0  0
   31.5880   16.6690   24.1530 C   0  0  0  0  0  0  0  0  0  0  0  0
   35.0570   17.0540   20.6850 C   0  0  0  0  0  0  0  0  0  0  0  0
   30.0300   16.5290   22.2490 C   0  0  3  0  0  0  0  0  0  0  0  0
   29.3610   14.0850   25.2690 O   0  0  0  0  0  0  0  0  0  0  0  0
   31.1380   17.5140   21.8600 C   0  0  1  0  0  0  0  0  0  0  0  0
   29.0540   16.3710   24.6780 C   0  0  3  0  0  0  0  0  0  0  0  0
   34.6400   17.5140   19.4270 N   0  0  0  0  0  0  0  0  0  0  0  0
   27.9280   16.9570   24.0320 O   0  0  0  0  0  0  0  0  0  0  0  0
   26.7050   16.0030   26.7200 C   0  0  0  0  0  0  0  0  0  0  0  0
   32.7040   16.0740   20.6420 O   0  0  0  0  0  0  0  0  0  0  0  0
   35.6230   17.9970   21.3720 O   0  0  0  0  0  0  0  0  0  0  0  0
   30.0640   15.3360   21.4690 O   0  0  0  0  0  0  0  0  0  0  0  0
  1 12  2  0  0  0  0
  2 15  1  0  0  0  0
  2 17  1  0  0  0  0
  2 20  1  0  0  0  0
  3 12  1  0  0  0  0
  4 11  2  0  0  0  0
  4 19  1  0  0  0  0
  4 24  1  0  0  0  0
  5 16  1  0  0  0  0
  6  8  1  0  0  0  0
  6 14  1  0  0  0  0
  7 12  1  0  0  0  0
  8 15  1  0  0  0  0
  8 19  1  0  0  0  0
  9 13  1  0  0  0  0
  9 23  1  0  0  0  0
 10 19  1  0  0  0  0
 12 23  1  0  0  0  0
 13 18  2  0  0  0  0
 13 20  1  0  0  0  0
 14 16  1  0  0  0  0
 14 24  1  0  0  0  0
 16 21  1  0  0  0  0
 16 25  1  0  0  0  0
 17 19  1  0  0  0  0
 17 26  1  0  0  0  0
 20 22  1  0  0  0  0
M  END
>  <Original_Directory>
1soo_A_rec_2gcq_doi_lig_tt_min_0_pocket10

>  <Original_Filename>
1soo_A_rec_2gcq_doi_lig_tt_min_0_pocket10_gen_sample_1.sdf

>  <Molecule_ID>
sample_1

>  <logS>
1.40301

$$$$