/tmp/tmp_uyc02sv
  MOE2022           3D

 37 41  0  0  1  0  0  0  0  0999 V2000
   -4.9710   20.3170   13.0680 C   0  0  0  0  0  0  0  0  0  0  0  0
   -3.2030   20.5660   14.8170 C   0  0  0  0  0  0  0  0  0  0  0  0
    2.5700   19.9050   14.4370 C   0  0  0  0  0  0  0  0  0  0  0  0
    5.1550   20.7980   15.1290 O   0  0  0  0  0  0  0  0  0  0  0  0
   -3.8690   18.3050   14.0700 C   0  0  0  0  0  0  0  0  0  0  0  0
   -7.7250   19.4470   12.7610 O   0  0  0  0  0  0  0  0  0  0  0  0
   -3.9700   21.1180   13.7460 C   0  0  0  0  0  0  0  0  0  0  0  0
    1.4200   15.5070   14.5930 C   0  0  3  0  0  0  0  0  0  0  0  0
    2.5340   15.2250   13.7390 O   0  0  0  0  0  0  0  0  0  0  0  0
    4.5740   21.3990   14.0580 C   0  0  0  0  0  0  0  0  0  0  0  0
    0.5440   16.6140   13.9530 C   0  0  3  0  0  0  0  0  0  0  0  0
   -3.2610   19.1610   15.0670 C   0  0  0  0  0  0  0  0  0  0  0  0
    4.5660   23.1300   12.3770 C   0  0  0  0  0  0  0  0  0  0  0  0
   -1.9140   13.9160   15.0570 C   0  0  0  0  0  0  0  0  0  0  0  0
   -8.2370   21.0010   11.0180 C   0  0  2  0  0  0  0  0  0  0  0  0
    0.5390   14.2530   14.7030 C   0  0  0  0  0  0  0  0  0  0  0  0
   -3.9700   15.7840   14.7500 C   0  0  0  0  0  0  0  0  0  0  0  0
    3.3990   22.5870   11.8350 C   0  0  0  0  0  0  0  0  0  0  0  0
   -3.3620   14.3770   14.8480 C   0  0  0  0  0  0  0  0  0  0  0  0
   -0.8540   14.6370   14.1740 C   0  0  3  0  0  0  0  0  0  0  0  0
    5.1450   22.5500   13.5110 C   0  0  0  0  0  0  0  0  0  0  0  0
    1.7630   18.8640   13.6450 C   0  0  0  0  0  0  0  0  0  0  0  0
   -6.0510   20.9830   12.4160 N   0  0  0  0  0  0  0  0  0  0  0  0
    2.8570   21.4140   12.3740 C   0  0  0  0  0  0  0  0  0  0  0  0
   -3.3730   16.8760   13.8410 C   0  0  3  0  0  0  0  0  0  0  0  0
   -7.3150   20.3930   12.1280 C   0  0  0  0  0  0  0  0  0  0  0  0
    3.3340   20.9170   13.5980 C   0  0  0  0  0  0  0  0  0  0  0  0
   -8.7520   20.7700    8.6520 O   0  0  0  0  0  0  0  0  0  0  0  0
   -6.5050   22.8440   10.8870 N   0  0  0  0  0  0  0  0  0  0  0  0
   -1.9120   16.7670   13.3770 C   0  0  0  0  0  0  0  0  0  0  0  0
   -0.8930   16.1860   14.4180 C   0  0  3  0  0  0  0  0  0  0  0  0
   -4.8620   18.8780   13.1890 C   0  0  0  0  0  0  0  0  0  0  0  0
    0.9390   17.9760   14.6190 C   0  0  0  0  0  0  0  0  0  0  0  0
   -7.9000   22.4620   10.6730 C   0  0  0  0  0  0  0  0  0  0  0  0
   -9.5970   21.0360   11.4580 O   0  0  0  0  0  0  0  0  0  0  0  0
   -5.9570   22.4590   12.2090 C   0  0  0  0  0  0  0  0  0  0  0  0
   -8.1750   20.1010    9.7730 C   0  0  0  0  0  0  0  0  0  0  0  0
  1  7  1  0  0  0  0
  1 23  1  0  0  0  0
  1 32  2  0  0  0  0
  2  7  2  0  0  0  0
  2 12  1  0  0  0  0
  3 22  1  0  0  0  0
  3 27  1  0  0  0  0
  4 10  1  0  0  0  0
  5 12  2  0  0  0  0
  5 25  1  0  0  0  0
  5 32  1  0  0  0  0
  6 26  2  0  0  0  0
  8  9  1  0  0  0  0
  8 11  1  0  0  0  0
  8 16  1  0  0  0  0
 10 21  2  0  0  0  0
 10 27  1  0  0  0  0
 11 31  1  0  0  0  0
 11 33  1  0  0  0  0
 13 18  2  0  0  0  0
 13 21  1  0  0  0  0
 14 19  1  0  0  0  0
 14 20  1  0  0  0  0
 15 26  1  0  0  0  0
 15 34  1  0  0  0  0
 15 35  1  0  0  0  0
 15 37  1  0  0  0  0
 16 20  1  0  0  0  0
 17 19  1  0  0  0  0
 17 25  1  0  0  0  0
 18 24  1  0  0  0  0
 20 31  1  0  0  0  0
 22 33  1  0  0  0  0
 23 26  1  0  0  0  0
 23 36  1  0  0  0  0
 24 27  2  0  0  0  0
 25 30  1  0  0  0  0
 28 37  1  0  0  0  0
 29 34  1  0  0  0  0
 29 36  1  0  0  0  0
 30 31  1  0  0  0  0
M  END
>  <Original_Directory>
3a7d_A_rec_5p9n_7je_lig_tt_docked_0_pocket10

>  <Original_Filename>
3a7d_A_rec_5p9n_7je_lig_tt_docked_0_pocket10_gen_sample_5.sdf

>  <Molecule_ID>
sample_5

>  <logS>
-5.6914101

$$$$