/tmp/tmp11x2mfwy
  MOE2022           3D

 14 15  0  0  1  0  0  0  0  0999 V2000
   11.5090   -4.4180    0.4530 C   0  0  2  0  0  0  0  0  0  0  0  0
   12.2090   -5.7640    0.2800 C   0  0  0  0  0  0  0  0  0  0  0  0
   14.6760   -3.0760    2.1660 C   0  0  0  0  0  0  0  0  0  0  0  0
   15.9380   -3.2960    1.5600 O   0  0  0  0  0  0  0  0  0  0  0  0
   14.6500   -1.7660    2.5870 O   0  0  0  0  0  0  0  0  0  0  0  0
   13.1040   -3.6490   -1.2920 C   0  0  0  0  0  0  0  0  0  0  0  0
   10.8100   -4.1720   -1.8590 O   0  0  0  0  0  0  0  0  0  0  0  0
   12.2040   -3.6220    1.5650 C   0  0  0  0  0  0  0  0  0  0  0  0
   10.1260   -4.5920    0.7710 O   0  0  0  0  0  0  0  0  0  0  0  0
   13.6060   -3.2490    1.0720 C   0  0  3  0  0  0  0  0  0  0  0  0
   14.4910   -4.0150    3.1670 O   0  0  0  0  0  0  0  0  0  0  0  0
   11.6530   -3.6310   -0.8510 C   0  0  3  0  0  0  0  0  0  0  0  0
   14.0040   -4.0970   -0.1300 C   0  0  3  0  0  0  0  0  0  0  0  0
   13.7090   -5.5520    0.1580 C   0  0  0  0  0  0  0  0  0  0  0  0
  1  2  1  0  0  0  0
  1  8  1  0  0  0  0
  1  9  1  0  0  0  0
  1 12  1  0  0  0  0
  2 14  1  0  0  0  0
  3  4  1  0  0  0  0
  3  5  1  0  0  0  0
  3 10  1  0  0  0  0
  3 11  1  0  0  0  0
  6 12  1  0  0  0  0
  6 13  1  0  0  0  0
  7 12  1  0  0  0  0
  8 10  1  0  0  0  0
 10 13  1  0  0  0  0
 13 14  1  0  0  0  0
M  END
>  <Original_Directory>
4ept_A_rec_4ept_0qw_lig_tt_min_0_pocket10

>  <Original_Filename>
4ept_A_rec_4ept_0qw_lig_tt_min_0_pocket10_gen_sample_1.sdf

>  <Molecule_ID>
sample_1

>  <logS>
0.052820001

$$$$