/tmp/tmppkce_65a
  MOE2022           3D

 14 16  0  0  1  0  0  0  0  0999 V2000
   12.8610   -5.3870   -0.4510 C   0  0  3  0  0  0  0  0  0  0  0  0
   14.1990   -4.1170   -2.4960 O   0  0  0  0  0  0  0  0  0  0  0  0
   11.8090   -3.9050   -2.4820 C   0  0  0  0  0  0  0  0  0  0  0  0
   13.1320   -3.4520   -1.8560 C   0  0  3  0  0  0  0  0  0  0  0  0
   11.5080   -5.7860   -0.9440 C   0  0  0  0  0  0  0  0  0  0  0  0
   12.9520   -3.8870   -0.3970 C   0  0  1  0  0  0  0  0  0  0  0  0
   11.4940   -3.5400   -0.1390 C   0  0  0  0  0  0  0  0  0  0  0  0
   15.1420   -4.2730    0.5900 N   0  0  0  0  0  0  0  0  0  0  0  0
   15.6950   -6.3770    1.4040 N   0  0  0  0  0  0  0  0  0  0  0  0
   14.0000   -3.5090    0.6060 C   0  0  0  0  0  0  0  0  0  0  0  0
   10.9610   -4.3860   -1.2930 C   0  0  3  0  0  0  0  0  0  0  0  0
   13.9100   -6.1880   -0.0660 N   0  0  0  0  0  0  0  0  0  0  0  0
   14.8800   -5.6100    0.6810 C   0  0  0  0  0  0  0  0  0  0  0  0
   13.8260   -2.5630    1.3600 O   0  0  0  0  0  0  0  0  0  0  0  0
  1  5  1  0  0  0  0
  1  6  1  0  0  0  0
  1 12  1  0  0  0  0
  2  4  1  0  0  0  0
  3  4  1  0  0  0  0
  3 11  1  0  0  0  0
  4  6  1  0  0  0  0
  5 11  1  0  0  0  0
  6  7  1  0  0  0  0
  6 10  1  0  0  0  0
  7 11  1  0  0  0  0
  8 10  1  0  0  0  0
  8 13  2  0  0  0  0
  9 13  1  0  0  0  0
 10 14  2  0  0  0  0
 12 13  1  0  0  0  0
M  END
>  <Original_Directory>
4ept_A_rec_4ept_0qw_lig_tt_min_0_pocket10

>  <Original_Filename>
4ept_A_rec_4ept_0qw_lig_tt_min_0_pocket10_gen_sample_12.sdf

>  <Molecule_ID>
sample_12

>  <logS>
-0.74905998

$$$$