/tmp/tmpv_rc81ic
  MOE2022           3D

 19 23  0  0  1  0  0  0  0  0999 V2000
  -40.1210  135.9430   10.9270 C   0  0  0  0  0  0  0  0  0  0  0  0
  -43.1950  139.3520    6.8560 C   0  0  0  0  0  0  0  0  0  0  0  0
  -36.8820  133.4130    9.1070 C   0  0  0  0  0  0  0  0  0  0  0  0
  -39.9240  136.3420    9.4560 C   0  0  1  0  0  0  0  0  0  0  0  0
  -40.1380  138.7320    7.0370 C   0  0  0  0  0  0  0  0  0  0  0  0
  -41.1990  137.8120    7.6560 C   0  0  1  0  0  0  0  0  0  0  0  0
  -41.5830  136.5450    6.8830 C   0  0  0  0  0  0  0  0  0  0  0  0
  -41.4580  139.7550    8.7780 C   0  0  3  0  0  0  0  0  0  0  0  0
  -40.8440  137.5180    9.1340 C   0  0  3  0  0  0  0  0  0  0  0  0
  -37.8680  135.4650   10.2580 C   0  0  3  0  0  0  0  0  0  0  0  0
  -40.3190  140.0710    7.7710 C   0  0  0  0  0  0  0  0  0  0  0  0
  -38.3960  136.5630    9.3110 C   0  0  0  0  0  0  0  0  0  0  0  0
  -40.2430  135.1510    8.5320 C   0  0  0  0  0  0  0  0  0  0  0  0
  -42.3540  138.7750    8.0010 C   0  0  3  0  0  0  0  0  0  0  0  0
  -40.8070  138.8470    9.7810 N   0  0  0  0  0  0  0  0  0  0  0  0
  -41.1030  135.2630    7.5000 C   0  0  0  0  0  0  0  0  0  0  0  0
  -38.1490  134.0740    9.6580 C   0  0  3  0  0  0  0  0  0  0  0  0
  -39.2250  134.0200    8.5610 C   0  0  0  0  0  0  0  0  0  0  0  0
  -38.7470  135.6290   11.5100 C   0  0  0  0  0  0  0  0  0  0  0  0
  1  4  1  0  0  0  0
  1 19  1  0  0  0  0
  2 14  1  0  0  0  0
  3 17  1  0  0  0  0
  4  9  1  0  0  0  0
  4 12  1  0  0  0  0
  4 13  1  0  0  0  0
  5  6  1  0  0  0  0
  5 11  1  0  0  0  0
  6  7  1  0  0  0  0
  6  9  1  0  0  0  0
  6 14  1  0  0  0  0
  7 16  1  0  0  0  0
  8 11  1  0  0  0  0
  8 14  1  0  0  0  0
  8 15  1  0  0  0  0
  9 15  1  0  0  0  0
 10 12  1  0  0  0  0
 10 17  1  0  0  0  0
 10 19  1  0  0  0  0
 13 16  1  0  0  0  0
 13 18  2  0  0  0  0
 17 18  1  0  0  0  0
M  END
>  <Original_Directory>
4rse_A_rec_4ryz_a5v_lig_tt_docked_2_pocket10

>  <Original_Filename>
4rse_A_rec_4ryz_a5v_lig_tt_docked_2_pocket10_gen_sample_3.sdf

>  <Molecule_ID>
sample_3

>  <logS>
-3.42237

$$$$