/tmp/tmp545lh_fv
  MOE2022           3D

 17 18  0  0  0  0  0  0  0  0999 V2000
    4.7830   34.0400   59.0700 O   0  0  0  0  0  0  0  0  0  0  0  0
    2.5980   27.3190   62.1550 O   0  0  0  0  0  0  0  0  0  0  0  0
    5.8370   33.2930   57.2780 N   0  0  0  0  0  0  0  0  0  0  0  0
    3.4660   29.2920   61.3430 C   0  0  0  0  0  0  0  0  0  0  0  0
    2.9850   29.6910   58.9890 C   0  0  0  0  0  0  0  0  0  0  0  0
    5.6260   33.0320   58.6610 C   0  0  0  0  0  0  0  0  0  0  0  0
    4.8610   31.7110   58.8480 C   0  0  0  0  0  0  0  0  0  0  0  0
    3.6700   30.0730   60.1820 C   0  0  0  0  0  0  0  0  0  0  0  0
    1.0270   26.8790   60.0140 O   0  0  0  0  0  0  0  0  0  0  0  0
    1.6630   28.1110   60.2480 N   0  0  0  0  0  0  0  0  0  0  0  0
    2.5960   28.1870   61.2850 C   0  0  0  0  0  0  0  0  0  0  0  0
    1.7130   29.0020   59.1900 C   0  0  0  0  0  0  0  0  0  0  0  0
    6.7890   33.0520   59.3190 O   0  0  0  0  0  0  0  0  0  0  0  0
    4.5160   31.2010   60.1150 C   0  0  0  0  0  0  0  0  0  0  0  0
    4.5410   30.9840   57.7000 C   0  0  0  0  0  0  0  0  0  0  0  0
    3.5660   29.9900   57.7520 C   0  0  0  0  0  0  0  0  0  0  0  0
    0.6720   29.3780   58.6780 O   0  0  0  0  0  0  0  0  0  0  0  0
  1  6  1  0  0  0  0
  2 11  2  0  0  0  0
  3  6  1  0  0  0  0
  4  8  1  0  0  0  0
  4 11  1  0  0  0  0
  5  8  1  0  0  0  0
  5 12  1  0  0  0  0
  5 16  2  0  0  0  0
  6  7  1  0  0  0  0
  6 13  1  0  0  0  0
  7 14  1  0  0  0  0
  7 15  2  0  0  0  0
  8 14  2  0  0  0  0
  9 10  1  0  0  0  0
 10 11  1  0  0  0  0
 10 12  1  0  0  0  0
 12 17  2  0  0  0  0
 15 16  1  0  0  0  0
M  END
>  <Original_Directory>
1iow_A_rec_1iov_pob_lig_tt_min_0_pocket10

>  <Original_Filename>
1iow_A_rec_1iov_pob_lig_tt_min_0_pocket10_gen_sample_17.sdf

>  <Molecule_ID>
sample_17

>  <logS>
-1.2773401

$$$$