/tmp/tmpd_wzfp1g
  MOE2022           3D

 31 35  0  0  1  0  0  0  0  0999 V2000
   -5.7120    3.4440   16.6890 C   0  0  0  0  0  0  0  0  0  0  0  0
   -1.3090   -0.7320   12.8610 C   0  0  0  0  0  0  0  0  0  0  0  0
   -3.1900    1.2810   16.0310 C   0  0  0  0  0  0  0  0  0  0  0  0
   -4.4620   -0.0380   13.6900 O   0  0  0  0  0  0  0  0  0  0  0  0
   -2.1540   -0.5040   10.6460 C   0  0  3  0  0  0  0  0  0  0  0  0
   -6.2710    3.1240   18.9960 O   0  0  0  0  0  0  0  0  0  0  0  0
   -3.2610    3.8350   12.5210 C   0  0  0  0  0  0  0  0  0  0  0  0
   -5.0850   -0.7210   16.4420 O   0  0  0  0  0  0  0  0  0  0  0  0
   -6.3880    2.5730   17.6970 C   0  0  3  0  0  0  0  0  0  0  0  0
   -3.1850   -0.6370    9.6940 O   0  0  0  0  0  0  0  0  0  0  0  0
   -1.0150    0.6880   12.3590 C   0  0  0  0  0  0  0  0  0  0  0  0
   -3.1300    1.6300   11.4220 C   0  0  0  0  0  0  0  0  0  0  0  0
   -1.4430    3.2460   10.7740 C   0  0  0  0  0  0  0  0  0  0  0  0
   -1.1480    1.8770   10.1320 C   0  0  0  0  0  0  0  0  0  0  0  0
   -6.9540    0.4680   15.5890 C   0  0  0  0  0  0  0  0  0  0  0  0
   -5.9900    1.1140   17.6780 C   0  0  3  0  0  0  0  0  0  0  0  0
   -5.1260    0.7440   18.7020 O   0  0  0  0  0  0  0  0  0  0  0  0
   -1.8400    0.9170   11.0900 C   0  0  2  0  0  0  0  0  0  0  0  0
   -2.9010    3.1290   11.2300 C   0  0  3  0  0  0  0  0  0  0  0  0
   -3.8030    5.0470   14.9790 C   0  0  0  0  0  0  0  0  0  0  0  0
   -2.4200   -1.2360   11.9640 C   0  0  3  0  0  0  0  0  0  0  0  0
   -4.9260    2.1160   13.1620 O   0  0  0  0  0  0  0  0  0  0  0  0
   -4.3410    3.7940   14.6870 C   0  0  0  0  0  0  0  0  0  0  0  0
   -2.6900    5.0510   12.8580 C   0  0  0  0  0  0  0  0  0  0  0  0
   -5.5980    0.5900   16.2980 C   0  0  1  0  0  0  0  0  0  0  0  0
   -4.9520    2.9500   15.6710 C   0  0  0  0  0  0  0  0  0  0  0  0
   -4.6410    1.1120   14.0550 C   0  0  0  0  0  0  0  0  0  0  0  0
   -2.4050   -2.7500   11.7830 C   0  0  0  0  0  0  0  0  0  0  0  0
   -2.9850    5.6770   14.0590 C   0  0  0  0  0  0  0  0  0  0  0  0
   -4.1880    3.2760   13.4010 C   0  0  0  0  0  0  0  0  0  0  0  0
   -4.6110    1.4830   15.5210 C   0  0  1  0  0  0  0  0  0  0  0  0
  1  9  1  0  0  0  0
  1 26  2  0  0  0  0
  2 11  1  0  0  0  0
  2 21  1  0  0  0  0
  3 31  1  0  0  0  0
  4 27  2  0  0  0  0
  5 10  1  0  0  0  0
  5 18  1  0  0  0  0
  5 21  1  0  0  0  0
  6  9  1  0  0  0  0
  7 19  1  0  0  0  0
  7 24  1  0  0  0  0
  7 30  2  0  0  0  0
  8 25  1  0  0  0  0
  9 16  1  0  0  0  0
 11 18  1  0  0  0  0
 12 18  1  0  0  0  0
 12 19  1  0  0  0  0
 13 14  1  0  0  0  0
 13 19  1  0  0  0  0
 14 18  1  0  0  0  0
 15 25  1  0  0  0  0
 16 17  1  0  0  0  0
 16 25  1  0  0  0  0
 20 23  2  0  0  0  0
 20 29  1  0  0  0  0
 21 28  1  0  0  0  0
 22 27  1  0  0  0  0
 22 30  1  0  0  0  0
 23 26  1  0  0  0  0
 23 30  1  0  0  0  0
 24 29  2  0  0  0  0
 25 31  1  0  0  0  0
 26 31  1  0  0  0  0
 27 31  1  0  0  0  0
M  END
>  <Original_Directory>
3oil_A_rec_3oil_vz5_lig_tt_docked_3_pocket10

>  <Original_Filename>
3oil_A_rec_3oil_vz5_lig_tt_docked_3_pocket10_gen_sample_14.sdf

>  <Molecule_ID>
sample_14

>  <logS>
-4.2887301

$$$$