
  MOE2022           3D

 21 26  0  0  1  0  0  0  0  0999 V2000
   29.0290    5.5810   -0.6030 N   0  0  0  0  0  0  0  0  0  0  0  0
   26.8340   11.6440   -4.8620 O   0  0  0  0  0  0  0  0  0  0  0  0
   26.1140    8.5970   -2.8740 O   0  0  0  0  0  0  0  0  0  0  0  0
   28.5000    6.4840   -1.3370 C   0  0  0  0  0  0  0  0  0  0  0  0
   25.2150    9.8990   -4.6480 C   0  0  1  0  0  0  0  0  0  0  0  0
   27.3120    8.2420   -2.2050 C   0  0  1  0  0  0  0  0  0  0  0  0
   23.7880    8.0410   -3.9340 O   0  0  0  0  0  0  0  0  0  0  0  0
   25.1210    5.3970   -4.0510 O   0  0  0  0  0  0  0  0  0  0  0  0
   26.6920   10.3000   -4.6240 C   0  0  0  0  0  0  0  0  0  0  0  0
   28.4280    8.9330   -2.5040 C   0  0  0  0  0  0  0  0  0  0  0  0
   25.4230    6.2630   -3.2440 C   0  0  0  0  0  0  0  0  0  0  0  0
   26.1560    6.0380   -2.0810 N   0  0  0  0  0  0  0  0  0  0  0  0
   24.7220   10.4730   -3.4530 O   0  0  0  0  0  0  0  0  0  0  0  0
   29.5730    7.2070   -1.5290 O   0  0  0  0  0  0  0  0  0  0  0  0
   27.9790    9.0880   -1.2520 C   0  0  3  0  0  0  0  0  0  0  0  0
   27.6600    9.5290   -5.2000 O   0  0  0  0  0  0  0  0  0  0  0  0
   29.1870    8.3610   -0.7630 C   0  0  0  0  0  0  0  0  0  0  0  0
   27.2620    6.8840   -1.7870 C   0  0  3  0  0  0  0  0  0  0  0  0
   25.1220    7.7310   -3.5030 C   0  0  3  0  0  0  0  0  0  0  0  0
   24.8000    8.4060   -4.8660 C   0  0  3  0  0  0  0  0  0  0  0  0
   26.0280    9.9700   -3.3340 C   0  0  2  0  0  0  0  0  0  0  0  0
  1  4  2  0  0  0  0
  2  9  1  0  0  0  0
  3  6  1  0  0  0  0
  3 21  1  0  0  0  0
  4 14  1  0  0  0  0
  4 18  1  0  0  0  0
  5  9  1  0  0  0  0
  5 13  1  0  0  0  0
  5 20  1  0  0  0  0
  5 21  1  0  0  0  0
  6 10  1  0  0  0  0
  6 15  1  0  0  0  0
  6 18  1  0  0  0  0
  7 19  1  0  0  0  0
  7 20  1  0  0  0  0
  8 11  2  0  0  0  0
  9 16  1  0  0  0  0
  9 21  1  0  0  0  0
 10 15  1  0  0  0  0
 11 12  1  0  0  0  0
 11 19  1  0  0  0  0
 12 18  1  0  0  0  0
 13 21  1  0  0  0  0
 14 17  1  0  0  0  0
 15 17  1  0  0  0  0
 19 20  1  0  0  0  0
M  END
>  <Original_Directory>
3f96_A_rec_5lz9_7br_lig_tt_min_0_pocket10

>  <Original_Filename>
3f96_A_rec_5lz9_7br_lig_tt_min_0_pocket10_gen_sample_11.sdf

>  <Molecule_ID>
sample_11

>  <logS>
-1.67794

$$$$