/tmp/tmp1f48tvh6
  MOE2022           3D

 27 33  0  0  1  0  0  0  0  0999 V2000
   28.9190    0.7810   -2.6180 C   0  0  0  0  0  0  0  0  0  0  0  0
   26.7270    1.3720   -3.1980 C   0  0  0  0  0  0  0  0  0  0  0  0
   27.5430    1.8740   -1.0300 C   0  0  0  0  0  0  0  0  0  0  0  0
   27.8190    0.6110   -3.3990 N   0  0  0  0  0  0  0  0  0  0  0  0
   26.6810    5.7170   -1.2200 C   0  0  0  0  0  0  0  0  0  0  0  0
   26.6870    2.2490   -2.1060 C   0  0  0  0  0  0  0  0  0  0  0  0
   21.9750    7.8120   -3.3910 C   0  0  2  0  0  0  0  0  0  0  0  0
   23.7070    6.8030   -4.7350 C   0  0  0  0  0  0  0  0  0  0  0  0
   20.9980    6.8310   -3.8280 O   0  0  0  0  0  0  0  0  0  0  0  0
   21.2670    9.1650   -3.2430 C   0  0  3  0  0  0  0  0  0  0  0  0
   24.0260    9.0110   -3.6470 C   0  0  3  0  0  0  0  0  0  0  0  0
   23.5650    6.0460   -3.3750 C   0  0  3  0  0  0  0  0  0  0  0  0
   27.1850    2.1490    0.4030 C   0  0  0  0  0  0  0  0  0  0  0  0
   22.1990    8.9530   -5.4770 C   0  0  0  0  0  0  0  0  0  0  0  0
   24.7880    5.4110   -2.7130 C   0  0  0  0  0  0  0  0  0  0  0  0
   25.0260    4.0260   -2.6390 C   0  0  0  0  0  0  0  0  0  0  0  0
   25.6430    6.2660   -1.9830 C   0  0  0  0  0  0  0  0  0  0  0  0
   23.0160    8.1670   -4.4480 C   0  0  2  0  0  0  0  0  0  0  0  0
   23.4570   10.3980   -3.2840 C   0  0  0  0  0  0  0  0  0  0  0  0
   25.4680    7.7590   -2.0450 C   0  0  0  0  0  0  0  0  0  0  0  0
   21.0600    9.6340   -4.6980 C   0  0  0  0  0  0  0  0  0  0  0  0
   24.0370    8.2650   -2.2570 C   0  0  3  0  0  0  0  0  0  0  0  0
   23.0000    7.1630   -2.4420 C   0  0  3  0  0  0  0  0  0  0  0  0
   26.2520    3.5750   -2.1260 N   0  0  0  0  0  0  0  0  0  0  0  0
   27.1610    4.4760   -1.6230 C   0  0  0  0  0  0  0  0  0  0  0  0
   28.7890    1.3560   -1.3580 C   0  0  0  0  0  0  0  0  0  0  0  0
   22.1250   10.2370   -2.5540 C   0  0  0  0  0  0  0  0  0  0  0  0
  1  4  2  0  0  0  0
  1 26  1  0  0  0  0
  2  4  1  0  0  0  0
  2  6  2  0  0  0  0
  3  6  1  0  0  0  0
  3 13  1  0  0  0  0
  3 26  2  0  0  0  0
  5 17  1  0  0  0  0
  5 25  2  0  0  0  0
  6 24  1  0  0  0  0
  7  9  1  0  0  0  0
  7 10  1  0  0  0  0
  7 18  1  0  0  0  0
  7 23  1  0  0  0  0
  8 12  1  0  0  0  0
  8 18  1  0  0  0  0
 10 21  1  0  0  0  0
 10 27  1  0  0  0  0
 11 18  1  0  0  0  0
 11 19  1  0  0  0  0
 11 22  1  0  0  0  0
 12 15  1  0  0  0  0
 12 23  1  0  0  0  0
 14 18  1  0  0  0  0
 14 21  1  0  0  0  0
 15 16  1  0  0  0  0
 15 17  2  0  0  0  0
 16 24  1  0  0  0  0
 17 20  1  0  0  0  0
 19 27  1  0  0  0  0
 20 22  1  0  0  0  0
 22 23  1  0  0  0  0
 24 25  1  0  0  0  0
M  END
>  <Original_Directory>
3f96_A_rec_5lz9_7br_lig_tt_min_0_pocket10

>  <Original_Filename>
3f96_A_rec_5lz9_7br_lig_tt_min_0_pocket10_gen_sample_4.sdf

>  <Molecule_ID>
sample_4

>  <logS>
-3.2330501

$$$$