/tmp/tmp0v3po0_g
  MOE2022           3D

 25 29  0  0  1  0  0  0  0  0999 V2000
   -2.2270   16.8190   27.3650 C   0  0  3  0  0  0  0  0  0  0  0  0
   -2.6550   15.4480   27.7980 C   0  0  0  0  0  0  0  0  0  0  0  0
   -2.2300   19.8990   21.0490 O   0  0  0  0  0  0  0  0  0  0  0  0
   -4.8610   20.5850   26.8040 C   0  0  0  0  0  0  0  0  0  0  0  0
   -4.3700   19.2900   26.9760 C   0  0  0  0  0  0  0  0  0  0  0  0
   -2.2010   18.4300   22.7210 N   0  0  0  0  0  0  0  0  0  0  0  0
   -2.3760   17.0620   24.7510 C   0  0  0  0  0  0  0  0  0  0  0  0
   -4.9950   18.4640   27.9060 C   0  0  0  0  0  0  0  0  0  0  0  0
   -2.9110   18.3000   23.9390 C   0  0  2  0  0  0  0  0  0  0  0  0
   -6.0810   18.9320   28.6470 C   0  0  0  0  0  0  0  0  0  0  0  0
   -1.6480   14.3710   27.8130 C   0  0  0  0  0  0  0  0  0  0  0  0
   -6.0080   21.0110   27.4640 C   0  0  0  0  0  0  0  0  0  0  0  0
   -1.3250   17.5240   28.0990 C   0  0  0  0  0  0  0  0  0  0  0  0
   -2.8970   17.3680   26.1470 C   0  0  3  0  0  0  0  0  0  0  0  0
    0.2930   15.7010   28.5240 C   0  0  0  0  0  0  0  0  0  0  0  0
   -2.5590   20.5600   24.4720 C   0  0  0  0  0  0  0  0  0  0  0  0
   -4.1600   18.8120   23.9290 C   0  0  0  0  0  0  0  0  0  0  0  0
   -3.1820   19.2780   24.6930 C   0  0  1  0  0  0  0  0  0  0  0  0
   -3.1330   18.8710   26.2180 C   0  0  3  0  0  0  0  0  0  0  0  0
   -3.8230   15.2740   28.1410 O   0  0  0  0  0  0  0  0  0  0  0  0
   -6.6470   20.1640   28.3520 C   0  0  0  0  0  0  0  0  0  0  0  0
   -2.0270   19.7340   22.2790 C   0  0  0  0  0  0  0  0  0  0  0  0
   -0.2370   16.9220   28.7660 C   0  0  0  0  0  0  0  0  0  0  0  0
   -0.3340   14.5830   27.9240 C   0  0  0  0  0  0  0  0  0  0  0  0
   -1.9860   20.7580   23.2150 C   0  0  0  0  0  0  0  0  0  0  0  0
  1  2  1  0  0  0  0
  1 13  1  0  0  0  0
  1 14  1  0  0  0  0
  2 11  1  0  0  0  0
  2 20  2  0  0  0  0
  3 22  2  0  0  0  0
  4  5  2  0  0  0  0
  4 12  1  0  0  0  0
  5  8  1  0  0  0  0
  5 19  1  0  0  0  0
  6  9  1  0  0  0  0
  6 22  1  0  0  0  0
  7  9  1  0  0  0  0
  7 14  1  0  0  0  0
  8 10  2  0  0  0  0
  9 17  1  0  0  0  0
  9 18  1  0  0  0  0
 10 21  1  0  0  0  0
 11 24  1  0  0  0  0
 12 21  2  0  0  0  0
 13 23  1  0  0  0  0
 14 19  1  0  0  0  0
 15 23  1  0  0  0  0
 15 24  1  0  0  0  0
 16 18  1  0  0  0  0
 16 25  2  0  0  0  0
 17 18  1  0  0  0  0
 18 19  1  0  0  0  0
 22 25  1  0  0  0  0
M  END
>  <Original_Directory>
5ht4_A_rec_1kmv_lii_lig_tt_min_0_pocket10

>  <Original_Filename>
5ht4_A_rec_1kmv_lii_lig_tt_min_0_pocket10_gen_sample_10.sdf

>  <Molecule_ID>
sample_10

>  <logS>
-4.08286

$$$$