/tmp/tmpk2zes6r6
  MOE2022           3D

 17 18  0  0  1  0  0  0  0  0999 V2000
   -1.2060   29.3430  -16.1580 O   0  0  0  0  0  0  0  0  0  0  0  0
   -4.4300   26.5870  -15.5970 C   0  0  0  0  0  0  0  0  0  0  0  0
   -5.3820   27.6760  -15.9840 C   0  0  0  0  0  0  0  0  0  0  0  0
   -6.9090   29.9480  -16.3040 C   0  0  0  0  0  0  0  0  0  0  0  0
   -2.3760   29.6740  -15.4920 C   0  0  3  0  0  0  0  0  0  0  0  0
   -4.7630   28.9310  -15.9760 C   0  0  0  0  0  0  0  0  0  0  0  0
   -2.3080   26.9100  -14.4890 O   0  0  0  0  0  0  0  0  0  0  0  0
   -2.2270   30.8720  -14.6310 C   0  0  0  0  0  0  0  0  0  0  0  0
   -3.3980   28.7950  -15.5500 C   0  0  3  0  0  0  0  0  0  0  0  0
   -5.5220   30.0660  -16.2210 C   0  0  0  0  0  0  0  0  0  0  0  0
   -2.1170   31.5020  -12.4540 O   0  0  0  0  0  0  0  0  0  0  0  0
   -2.8630   30.6490  -13.2480 C   0  0  0  0  0  0  0  0  0  0  0  0
   -7.5140   28.7090  -16.2100 C   0  0  0  0  0  0  0  0  0  0  0  0
   -2.7030   29.3550  -12.8100 O   0  0  0  0  0  0  0  0  0  0  0  0
   -3.2000   27.3670  -15.1700 C   0  0  0  0  0  0  0  0  0  0  0  0
   -6.7490   27.5620  -16.1180 C   0  0  0  0  0  0  0  0  0  0  0  0
   -4.1820   30.9110  -13.2270 O   0  0  0  0  0  0  0  0  0  0  0  0
  1  5  1  0  0  0  0
  2  3  1  0  0  0  0
  2 15  1  0  0  0  0
  3  6  1  0  0  0  0
  3 16  2  0  0  0  0
  4 10  1  0  0  0  0
  4 13  2  0  0  0  0
  5  8  1  0  0  0  0
  5  9  1  0  0  0  0
  6  9  1  0  0  0  0
  6 10  2  0  0  0  0
  7 15  2  0  0  0  0
  8 12  1  0  0  0  0
  9 15  1  0  0  0  0
 11 12  1  0  0  0  0
 12 14  1  0  0  0  0
 12 17  1  0  0  0  0
 13 16  1  0  0  0  0
M  END
>  <Original_Directory>
4nwd_A_rec_4igr_3za_lig_tt_docked_2_pocket10

>  <Original_Filename>
4nwd_A_rec_4igr_3za_lig_tt_docked_2_pocket10_gen_sample_3.sdf

>  <Molecule_ID>
sample_3

>  <logS>
-1.31322

$$$$