/tmp/tmpbik64hum
  MOE2022           3D

 27 28  0  0  1  0  0  0  0  0999 V2000
   21.4200  -20.1230  -11.2250 C   0  0  0  0  0  0  0  0  0  0  0  0
   16.4740  -13.1290  -14.4490 N   0  0  0  0  0  0  0  0  0  0  0  0
   18.1670  -19.9450   -7.6120 C   0  0  0  0  0  0  0  0  0  0  0  0
   17.1090  -17.9870  -11.9170 C   0  0  0  0  0  0  0  0  0  0  0  0
   17.2960  -13.5590  -16.5150 O   0  0  0  0  0  0  0  0  0  0  0  0
   17.3040  -15.3540  -13.6510 C   0  0  0  0  0  0  0  0  0  0  0  0
   15.8230  -19.9100  -11.2080 O   0  0  0  0  0  0  0  0  0  0  0  0
   15.4330  -12.4050  -16.2950 O   0  0  0  0  0  0  0  0  0  0  0  0
   20.0310  -20.1920  -11.2270 C   0  0  0  0  0  0  0  0  0  0  0  0
   17.0130  -16.6850  -11.5720 N   0  0  0  0  0  0  0  0  0  0  0  0
   19.3190  -19.6960  -10.1250 C   0  0  0  0  0  0  0  0  0  0  0  0
   21.3950  -18.9880   -9.1050 C   0  0  0  0  0  0  0  0  0  0  0  0
   16.3360  -14.2160  -13.5980 C   0  0  0  0  0  0  0  0  0  0  0  0
   17.8120  -15.9530  -12.3680 C   0  0  0  0  0  0  0  0  0  0  0  0
   15.2150  -14.2700  -12.8820 N   0  0  0  0  0  0  0  0  0  0  0  0
   16.3800  -13.0740  -15.8230 C   0  0  0  0  0  0  0  0  0  0  0  0
   16.8900  -19.0700  -10.8790 C   0  0  3  0  0  0  0  0  0  0  0  0
   22.0980  -19.5050  -10.1810 C   0  0  0  0  0  0  0  0  0  0  0  0
   17.4070  -20.1750   -8.7600 C   0  0  0  0  0  0  0  0  0  0  0  0
   20.0410  -19.2740   -8.9680 C   0  0  0  0  0  0  0  0  0  0  0  0
   17.2330  -18.3410  -13.0830 O   0  0  0  0  0  0  0  0  0  0  0  0
   19.0210  -15.8840  -12.1390 O   0  0  0  0  0  0  0  0  0  0  0  0
   17.8590  -19.7550   -5.3050 O   0  0  0  0  0  0  0  0  0  0  0  0
   17.7060  -20.4620   -6.3130 C   0  0  0  0  0  0  0  0  0  0  0  0
   19.3840  -19.2640   -7.7210 C   0  0  0  0  0  0  0  0  0  0  0  0
   17.2780  -21.6380   -6.2710 O   0  0  0  0  0  0  0  0  0  0  0  0
   17.8860  -19.7090   -9.9820 C   0  0  0  0  0  0  0  0  0  0  0  0
  1  9  2  0  0  0  0
  1 18  1  0  0  0  0
  2 13  1  0  0  0  0
  2 16  1  0  0  0  0
  3 19  1  0  0  0  0
  3 24  1  0  0  0  0
  3 25  2  0  0  0  0
  4 10  1  0  0  0  0
  4 17  1  0  0  0  0
  4 21  2  0  0  0  0
  5 16  2  0  0  0  0
  6 13  1  0  0  0  0
  6 14  1  0  0  0  0
  7 17  1  0  0  0  0
  8 16  1  0  0  0  0
  9 11  1  0  0  0  0
 10 14  1  0  0  0  0
 11 20  2  0  0  0  0
 11 27  1  0  0  0  0
 12 18  2  0  0  0  0
 12 20  1  0  0  0  0
 13 15  2  0  0  0  0
 14 22  2  0  0  0  0
 17 27  1  0  0  0  0
 19 27  2  0  0  0  0
 20 25  1  0  0  0  0
 23 24  1  0  0  0  0
 24 26  2  0  0  0  0
M  END
>  <Original_Directory>
3sv3_A_rec_4dlg_dct_lig_tt_docked_3_pocket10

>  <Original_Filename>
3sv3_A_rec_4dlg_dct_lig_tt_docked_3_pocket10_gen_sample_14.sdf

>  <Molecule_ID>
sample_14

>  <logS>
-3.87011

$$$$