/tmp/tmpoxs1d7b0
  MOE2022           3D

 27 28  0  0  1  0  0  0  0  0999 V2000
   17.8710  -15.3470  -11.7510 O   0  0  0  0  0  0  0  0  0  0  0  0
   18.8680  -22.0210   -7.5670 C   0  0  0  0  0  0  0  0  0  0  0  0
   17.7240  -17.5790  -10.8030 C   0  0  0  0  0  0  0  0  0  0  0  0
   18.4070  -19.8880   -8.7080 N   0  0  0  0  0  0  0  0  0  0  0  0
   16.9790  -18.6150  -10.2440 C   0  0  0  0  0  0  0  0  0  0  0  0
   18.1410  -15.5130  -13.3410 P   0  0  2  0  0  0  0  0  0  0  0  0
   16.9770  -16.2920  -11.1110 C   0  0  0  0  0  0  0  0  0  0  0  0
   17.2260  -19.5670   -9.2770 C   0  0  0  0  0  0  0  0  0  0  0  0
   19.7850  -18.7770  -10.5040 C   0  0  0  0  0  0  0  0  0  0  0  0
   18.3270  -13.2020  -16.3570 O   0  0  0  0  0  0  0  0  0  0  0  0
   19.2760  -18.7700   -5.9550 C   0  0  0  0  0  0  0  0  0  0  0  0
   18.2230  -12.7800  -14.9340 P   0  0  0  0  0  0  0  0  0  0  0  0
   19.6370  -12.7290  -14.3850 O   0  0  0  0  0  0  0  0  0  0  0  0
   17.4510  -11.5010  -14.8100 O   0  0  0  0  0  0  0  0  0  0  0  0
   18.6530  -22.8000   -6.4290 C   0  0  0  0  0  0  0  0  0  0  0  0
   18.5820  -20.6510   -7.5200 C   0  0  0  0  0  0  0  0  0  0  0  0
   17.3200  -14.0270  -13.9730 C   0  0  3  0  0  0  0  0  0  0  0  0
   18.1260  -22.2170   -5.2860 C   0  0  0  0  0  0  0  0  0  0  0  0
   19.5110  -19.6320   -9.4620 C   0  0  0  0  0  0  0  0  0  0  0  0
   18.0600  -20.8260   -5.1900 C   0  0  0  0  0  0  0  0  0  0  0  0
   16.1230  -13.2220  -12.1230 O   0  0  0  0  0  0  0  0  0  0  0  0
   17.4420  -16.7140  -13.8800 O   0  0  0  0  0  0  0  0  0  0  0  0
   16.0460  -13.7590  -13.2290 C   0  0  0  0  0  0  0  0  0  0  0  0
   19.0620  -17.7590  -11.0990 C   0  0  0  0  0  0  0  0  0  0  0  0
   14.9830  -14.1000  -13.7550 O   0  0  0  0  0  0  0  0  0  0  0  0
   18.5690  -20.0610   -6.2370 C   0  0  0  0  0  0  0  0  0  0  0  0
   19.5900  -15.4630  -13.5580 O   0  0  0  0  0  0  0  0  0  0  0  0
  1  6  1  0  0  0  0
  1  7  1  0  0  0  0
  2 15  1  0  0  0  0
  2 16  2  0  0  0  0
  3  5  1  0  0  0  0
  3  7  1  0  0  0  0
  3 24  2  0  0  0  0
  4  8  1  0  0  0  0
  4 16  1  0  0  0  0
  4 19  1  0  0  0  0
  5  8  2  0  0  0  0
  6 17  1  0  0  0  0
  6 22  2  0  0  0  0
  6 27  1  0  0  0  0
  9 19  2  0  0  0  0
  9 24  1  0  0  0  0
 10 12  2  0  0  0  0
 11 26  1  0  0  0  0
 12 13  1  0  0  0  0
 12 14  1  0  0  0  0
 12 17  1  0  0  0  0
 15 18  2  0  0  0  0
 16 26  1  0  0  0  0
 17 23  1  0  0  0  0
 18 20  1  0  0  0  0
 20 26  2  0  0  0  0
 21 23  1  0  0  0  0
 23 25  2  0  0  0  0
M  END
>  <Original_Directory>
3sv3_A_rec_4dlg_dct_lig_tt_docked_3_pocket10

>  <Original_Filename>
3sv3_A_rec_4dlg_dct_lig_tt_docked_3_pocket10_gen_sample_9.sdf

>  <Molecule_ID>
sample_9

>  <logS>
-1.56486

$$$$