/tmp/tmpugewbsr1
  MOE2022           3D

 22 25  0  0  1  0  0  0  0  0999 V2000
    5.9180  -41.4800   48.0110 C   0  0  1  0  0  0  0  0  0  0  0  0
    8.6620  -35.3730   47.0060 C   0  0  0  0  0  0  0  0  0  0  0  0
    8.7410  -38.4810   48.7150 C   0  0  0  0  0  0  0  0  0  0  0  0
    9.2100  -39.7340   48.3560 C   0  0  0  0  0  0  0  0  0  0  0  0
    5.2260  -40.8620   46.7980 C   0  0  0  0  0  0  0  0  0  0  0  0
    4.6150  -42.1210   46.1610 C   0  0  3  0  0  0  0  0  0  0  0  0
    9.4380  -35.9310   45.9830 C   0  0  0  0  0  0  0  0  0  0  0  0
    6.9690  -40.5650   48.5810 C   0  0  0  0  0  0  0  0  0  0  0  0
    8.5690  -36.1210   48.1860 C   0  0  0  0  0  0  0  0  0  0  0  0
    3.7010  -42.6580   48.5460 C   0  0  0  0  0  0  0  0  0  0  0  0
    9.3120  -37.3110   48.2200 C   0  0  0  0  0  0  0  0  0  0  0  0
    5.7520  -43.1320   46.2360 C   0  0  0  0  0  0  0  0  0  0  0  0
    3.4400  -42.6000   47.0430 C   0  0  3  0  0  0  0  0  0  0  0  0
    8.9490  -36.0150   44.5600 C   0  0  0  0  0  0  0  0  0  0  0  0
   10.5440  -37.3280   47.5540 C   0  0  0  0  0  0  0  0  0  0  0  0
    4.8440  -41.7850   49.0720 C   0  0  0  0  0  0  0  0  0  0  0  0
    7.5870  -38.4290   49.4960 C   0  0  0  0  0  0  0  0  0  0  0  0
    6.6740  -39.4790   49.3970 C   0  0  0  0  0  0  0  0  0  0  0  0
   10.6190  -36.5750   46.3720 C   0  0  0  0  0  0  0  0  0  0  0  0
    8.3170  -40.7980   48.2960 C   0  0  0  0  0  0  0  0  0  0  0  0
    6.5450  -42.7580   47.4790 C   0  0  0  0  0  0  0  0  0  0  0  0
    3.0060  -43.8620   46.5580 O   0  0  0  0  0  0  0  0  0  0  0  0
  1  5  1  0  0  0  0
  1  8  1  0  0  0  0
  1 16  1  0  0  0  0
  1 21  1  0  0  0  0
  2  7  2  0  0  0  0
  2  9  1  0  0  0  0
  3  4  1  0  0  0  0
  3 11  1  0  0  0  0
  3 17  2  0  0  0  0
  4 20  2  0  0  0  0
  5  6  1  0  0  0  0
  6 12  1  0  0  0  0
  6 13  1  0  0  0  0
  7 14  1  0  0  0  0
  7 19  1  0  0  0  0
  8 18  2  0  0  0  0
  8 20  1  0  0  0  0
  9 11  2  0  0  0  0
 10 13  1  0  0  0  0
 10 16  1  0  0  0  0
 11 15  1  0  0  0  0
 12 21  1  0  0  0  0
 13 22  1  0  0  0  0
 15 19  2  0  0  0  0
 17 18  1  0  0  0  0
M  END
>  <Original_Directory>
4oyr_B_rec_4oim_jus_lig_tt_docked_0_pocket10

>  <Original_Filename>
4oyr_B_rec_4oim_jus_lig_tt_docked_0_pocket10_gen_sample_6.sdf

>  <Molecule_ID>
sample_6

>  <logS>
-5.8765502

$$$$