/tmp/tmpan7svxru
  MOE2022           3D

 19 20  0  0  1  0  0  0  0  0999 V2000
   87.3540   67.1200   18.5020 N   0  0  0  0  0  0  0  0  0  0  0  0
   94.2290   66.5520   23.4260 C   0  0  0  0  0  0  0  0  0  0  0  0
   95.1780   66.0970   24.0940 O   0  0  0  0  0  0  0  0  0  0  0  0
   93.8970   67.7480   23.3710 O   0  0  0  0  0  0  0  0  0  0  0  0
   88.5610   67.2760   19.1390 C   0  0  0  0  0  0  0  0  0  0  0  0
   89.0640   66.0790   19.8660 C   0  0  3  0  0  0  0  0  0  0  0  0
   88.6460   64.8280   19.4150 C   0  0  0  0  0  0  0  0  0  0  0  0
   89.0930   68.3770   19.2770 O   0  0  0  0  0  0  0  0  0  0  0  0
   91.0580   64.9490   22.6160 N   0  0  0  0  0  0  0  0  0  0  0  0
   92.2890   65.4270   20.5980 C   0  0  3  0  0  0  0  0  0  0  0  0
   87.4030   64.7330   18.7610 C   0  0  3  0  0  0  0  0  0  0  0  0
   86.8640   65.8750   18.1790 C   0  0  0  0  0  0  0  0  0  0  0  0
   89.8850   66.3160   21.0140 C   0  0  0  0  0  0  0  0  0  0  0  0
   86.6240   63.6200   18.8610 O   0  0  0  0  0  0  0  0  0  0  0  0
   93.4840   65.3380   21.3200 C   0  0  0  0  0  0  0  0  0  0  0  0
   92.3120   65.4390   19.0850 C   0  0  0  0  0  0  0  0  0  0  0  0
   93.3480   65.5660   22.6980 C   0  0  3  0  0  0  0  0  0  0  0  0
   91.0820   65.5240   21.3810 C   0  0  3  0  0  0  0  0  0  0  0  0
   92.1920   65.0810   23.3370 C   0  0  0  0  0  0  0  0  0  0  0  0
  1  5  1  0  0  0  0
  1 12  1  0  0  0  0
  2  3  1  0  0  0  0
  2  4  2  0  0  0  0
  2 17  1  0  0  0  0
  5  6  1  0  0  0  0
  5  8  2  0  0  0  0
  6  7  1  0  0  0  0
  6 13  1  0  0  0  0
  7 11  1  0  0  0  0
  9 18  1  0  0  0  0
  9 19  2  0  0  0  0
 10 15  1  0  0  0  0
 10 16  1  0  0  0  0
 10 18  1  0  0  0  0
 11 12  1  0  0  0  0
 11 14  1  0  0  0  0
 13 18  1  0  0  0  0
 15 17  1  0  0  0  0
 17 19  1  0  0  0  0
M  END
>  <Original_Directory>
1k9s_D_rec_1pke_2fd_lig_tt_docked_0_pocket10

>  <Original_Filename>
1k9s_D_rec_1pke_2fd_lig_tt_docked_0_pocket10_gen_sample_15.sdf

>  <Molecule_ID>
sample_15

>  <logS>
-0.50322002

$$$$