/tmp/tmpfli16nl3
  MOE2022           3D

 25 29  0  0  1  0  0  0  0  0999 V2000
   14.5430    6.1330   15.1760 C   0  0  0  0  0  0  0  0  0  0  0  0
   13.7230    6.2050   11.6450 C   0  0  0  0  0  0  0  0  0  0  0  0
   14.6130    7.0540   17.3460 C   0  0  0  0  0  0  0  0  0  0  0  0
   13.4210    6.3280   12.9440 N   0  0  0  0  0  0  0  0  0  0  0  0
   20.0390    1.8170    9.4170 C   0  0  0  0  0  0  0  0  0  0  0  0
   14.5700    7.2780   15.9730 C   0  0  0  0  0  0  0  0  0  0  0  0
   15.1000    4.7890   13.4420 N   0  0  0  0  0  0  0  0  0  0  0  0
   16.8310    3.5690   10.4720 C   0  0  0  0  0  0  0  0  0  0  0  0
   20.4650    0.8310    8.5840 O   0  0  0  0  0  0  0  0  0  0  0  0
   18.8670    3.1610   11.5310 C   0  0  0  0  0  0  0  0  0  0  0  0
   14.8980    4.8660   15.7400 C   0  0  0  0  0  0  0  0  0  0  0  0
   16.0810    3.7950    9.5490 O   0  0  0  0  0  0  0  0  0  0  0  0
   20.8280    2.2800   10.4750 C   0  0  0  0  0  0  0  0  0  0  0  0
   14.8640    5.5480   11.2230 C   0  0  0  0  0  0  0  0  0  0  0  0
   17.8920    1.6270    8.4050 O   0  0  0  0  0  0  0  0  0  0  0  0
   18.2120    3.1010   10.2910 C   0  0  0  0  0  0  0  0  0  0  0  0
   15.5960    4.8320   12.1580 C   0  0  3  0  0  0  0  0  0  0  0  0
   16.7520    4.1410   11.7500 N   0  0  0  0  0  0  0  0  0  0  0  0
   14.3610    5.8090   17.8570 N   0  0  0  0  0  0  0  0  0  0  0  0
   14.3140    5.8600   13.8120 C   0  0  0  0  0  0  0  0  0  0  0  0
   18.7030    2.2310    9.3170 C   0  0  0  0  0  0  0  0  0  0  0  0
   14.6770    4.7340   17.1090 C   0  0  0  0  0  0  0  0  0  0  0  0
   20.2640    3.0990   11.4610 C   0  0  0  0  0  0  0  0  0  0  0  0
   18.0490    4.0450   12.4340 C   0  0  0  0  0  0  0  0  0  0  0  0
   15.4680    4.0360   14.6410 C   0  0  0  0  0  0  0  0  0  0  0  0
  1  6  2  0  0  0  0
  1 11  1  0  0  0  0
  1 20  1  0  0  0  0
  2  4  1  0  0  0  0
  2 14  2  0  0  0  0
  3  6  1  0  0  0  0
  3 19  2  0  0  0  0
  4 20  2  0  0  0  0
  5  9  1  0  0  0  0
  5 13  1  0  0  0  0
  5 21  2  0  0  0  0
  7 17  1  0  0  0  0
  7 20  1  0  0  0  0
  7 25  1  0  0  0  0
  8 12  2  0  0  0  0
  8 16  1  0  0  0  0
  8 18  1  0  0  0  0
 10 16  2  0  0  0  0
 10 23  1  0  0  0  0
 10 24  1  0  0  0  0
 11 22  2  0  0  0  0
 11 25  1  0  0  0  0
 13 23  2  0  0  0  0
 14 17  1  0  0  0  0
 15 21  1  0  0  0  0
 16 21  1  0  0  0  0
 17 18  1  0  0  0  0
 18 24  1  0  0  0  0
 19 22  1  0  0  0  0
M  END
>  <Original_Directory>
3u4u_A_rec_5kwh_6xt_lig_tt_min_0_pocket10

>  <Original_Filename>
3u4u_A_rec_5kwh_6xt_lig_tt_min_0_pocket10_gen_sample_1.sdf

>  <Molecule_ID>
sample_1

>  <logS>
-1.91917

$$$$