/tmp/tmp5ugdtqfc
  MOE2022           3D

 25 28  0  0  1  0  0  0  0  0999 V2000
   16.0170    4.7130    9.9550 C   0  0  0  0  0  0  0  0  0  0  0  0
   18.2500    3.6980   10.0210 C   0  0  3  0  0  0  0  0  0  0  0  0
   20.2090    2.3240    9.5020 C   0  0  0  0  0  0  0  0  0  0  0  0
   20.6210    1.1550    8.9500 O   0  0  0  0  0  0  0  0  0  0  0  0
   14.0540    5.6170   12.8860 O   0  0  0  0  0  0  0  0  0  0  0  0
   15.5870    4.1040   11.1160 C   0  0  0  0  0  0  0  0  0  0  0  0
   15.1810    5.3590   15.9930 C   0  0  0  0  0  0  0  0  0  0  0  0
   14.4630    7.2580   17.2710 C   0  0  0  0  0  0  0  0  0  0  0  0
   17.3100    4.6040    9.4440 C   0  0  0  0  0  0  0  0  0  0  0  0
   17.5330    3.2370   12.2590 N   0  0  0  0  0  0  0  0  0  0  0  0
   18.4900    3.7490   11.4160 C   0  0  0  0  0  0  0  0  0  0  0  0
   15.0090    5.4530   13.6190 C   0  0  0  0  0  0  0  0  0  0  0  0
   14.5230    5.8660   17.1240 C   0  0  0  0  0  0  0  0  0  0  0  0
   19.6480    4.2590   11.8820 N   0  0  0  0  0  0  0  0  0  0  0  0
   20.8080    3.9160   11.2840 C   0  0  0  0  0  0  0  0  0  0  0  0
   15.8890    4.3770   13.4980 N   0  0  0  0  0  0  0  0  0  0  0  0
   15.1780    6.1850   14.8550 C   0  0  0  0  0  0  0  0  0  0  0  0
   21.0510    2.9460   10.4010 C   0  0  0  0  0  0  0  0  0  0  0  0
   15.8990    4.1350   15.9140 C   0  0  0  0  0  0  0  0  0  0  0  0
   18.9280    2.7560    9.2090 C   0  0  3  0  0  0  0  0  0  0  0  0
   15.0910    8.0720   16.3260 C   0  0  0  0  0  0  0  0  0  0  0  0
   16.3270    3.7380   14.6640 C   0  0  0  0  0  0  0  0  0  0  0  0
   16.3400    3.9130   12.2750 C   0  0  3  0  0  0  0  0  0  0  0  0
   15.3220    7.5580   15.0520 C   0  0  0  0  0  0  0  0  0  0  0  0
   18.2670    2.2280    7.9640 C   0  0  0  0  0  0  0  0  0  0  0  0
  1  6  1  0  0  0  0
  1  9  2  0  0  0  0
  2  9  1  0  0  0  0
  2 11  1  0  0  0  0
  2 20  1  0  0  0  0
  3  4  1  0  0  0  0
  3 18  2  0  0  0  0
  3 20  1  0  0  0  0
  5 12  2  0  0  0  0
  6 23  1  0  0  0  0
  7 13  2  0  0  0  0
  7 17  1  0  0  0  0
  7 19  1  0  0  0  0
  8 13  1  0  0  0  0
  8 21  2  0  0  0  0
 10 11  2  0  0  0  0
 10 23  1  0  0  0  0
 11 14  1  0  0  0  0
 12 16  1  0  0  0  0
 12 17  1  0  0  0  0
 14 15  2  0  0  0  0
 15 18  1  0  0  0  0
 16 22  1  0  0  0  0
 16 23  1  0  0  0  0
 17 24  2  0  0  0  0
 19 22  2  0  0  0  0
 20 25  1  0  0  0  0
 21 24  1  0  0  0  0
M  END
>  <Original_Directory>
3u4u_A_rec_5kwh_6xt_lig_tt_min_0_pocket10

>  <Original_Filename>
3u4u_A_rec_5kwh_6xt_lig_tt_min_0_pocket10_gen_sample_17.sdf

>  <Molecule_ID>
sample_17

>  <logS>
-3.01561

$$$$