/tmp/tmpmea2pjrd
  MOE2022           3D

 17 18  0  0  0  0  0  0  0  0999 V2000
  -11.4670  -16.3740    4.5860 C   0  0  0  0  0  0  0  0  0  0  0  0
   -9.7230  -21.1640    3.7600 C   0  0  0  0  0  0  0  0  0  0  0  0
   -9.7540  -21.0660    2.3610 C   0  0  0  0  0  0  0  0  0  0  0  0
  -10.4800  -23.4470    2.1830 C   0  0  0  0  0  0  0  0  0  0  0  0
   -9.5670  -19.8080    1.7720 C   0  0  0  0  0  0  0  0  0  0  0  0
   -9.8490  -22.3480    0.1630 C   0  0  0  0  0  0  0  0  0  0  0  0
   -9.9180  -23.4670   -0.6490 C   0  0  0  0  0  0  0  0  0  0  0  0
   -9.2290  -17.5950    4.8890 C   0  0  0  0  0  0  0  0  0  0  0  0
  -10.6660  -24.7560    1.8130 C   0  0  0  0  0  0  0  0  0  0  0  0
   -9.3260  -18.6870    2.5820 C   0  0  0  0  0  0  0  0  0  0  0  0
   -9.9660  -16.3180    4.5840 C   0  0  0  0  0  0  0  0  0  0  0  0
   -9.7570  -20.0080    4.5390 C   0  0  0  0  0  0  0  0  0  0  0  0
   -9.3780  -15.2540    4.4410 O   0  0  0  0  0  0  0  0  0  0  0  0
   -9.7090  -24.8060   -0.4050 C   0  0  0  0  0  0  0  0  0  0  0  0
   -9.4670  -18.7810    3.9660 C   0  0  0  0  0  0  0  0  0  0  0  0
  -10.0930  -22.2880    1.5270 C   0  0  0  0  0  0  0  0  0  0  0  0
  -10.1710  -25.4680    0.7270 C   0  0  0  0  0  0  0  0  0  0  0  0
  1 11  1  0  0  0  0
  2  3  1  0  0  0  0
  2 12  2  0  0  0  0
  3  5  2  0  0  0  0
  3 16  1  0  0  0  0
  4  9  1  0  0  0  0
  4 16  2  0  0  0  0
  5 10  1  0  0  0  0
  6  7  2  0  0  0  0
  6 16  1  0  0  0  0
  7 14  1  0  0  0  0
  8 11  1  0  0  0  0
  8 15  1  0  0  0  0
  9 17  1  0  0  0  0
 10 15  2  0  0  0  0
 11 13  2  0  0  0  0
 12 15  1  0  0  0  0
 14 17  2  0  0  0  0
M  END
>  <Original_Directory>
5bot_B_rec_5bot_4um_lig_tt_docked_8_pocket10

>  <Original_Filename>
5bot_B_rec_5bot_4um_lig_tt_docked_8_pocket10_gen_sample_11.sdf

>  <Molecule_ID>
sample_11

>  <logS>
-3.60344

$$$$