/tmp/tmpi31oo0km
  MOE2022           3D

 16 17  0  0  1  0  0  0  0  0999 V2000
    2.1820   29.3560   59.5300 C   0  0  0  0  0  0  0  0  0  0  0  0
    2.2680   27.2410   60.7600 C   0  0  0  0  0  0  0  0  0  0  0  0
    2.9210   30.3490   58.9240 N   0  0  0  0  0  0  0  0  0  0  0  0
    3.1910   31.5120   60.8530 O   0  0  0  0  0  0  0  0  0  0  0  0
    4.1750   28.6150   60.5610 O   0  0  0  0  0  0  0  0  0  0  0  0
    3.2060   31.5060   59.6110 C   0  0  0  0  0  0  0  0  0  0  0  0
    0.8170   29.3510   59.3800 C   0  0  0  0  0  0  0  0  0  0  0  0
    2.8350   28.3920   60.2830 C   0  0  3  0  0  0  0  0  0  0  0  0
    5.8310   32.9680   57.7810 C   0  0  0  0  0  0  0  0  0  0  0  0
    3.3770   30.1580   57.6400 C   0  0  0  0  0  0  0  0  0  0  0  0
    4.2840   31.0790   57.1180 C   0  0  0  0  0  0  0  0  0  0  0  0
   -0.1310   28.4980   59.8460 C   0  0  0  0  0  0  0  0  0  0  0  0
    3.6110   32.6120   58.8270 C   0  0  0  0  0  0  0  0  0  0  0  0
   -0.1130   27.2300   60.3440 C   0  0  0  0  0  0  0  0  0  0  0  0
    1.0530   26.6390   60.8040 C   0  0  0  0  0  0  0  0  0  0  0  0
    4.4950   32.2930   57.8050 C   0  0  3  0  0  0  0  0  0  0  0  0
  1  3  1  0  0  0  0
  1  7  2  0  0  0  0
  1  8  1  0  0  0  0
  2  8  1  0  0  0  0
  2 15  2  0  0  0  0
  3  6  1  0  0  0  0
  3 10  1  0  0  0  0
  4  6  2  0  0  0  0
  5  8  1  0  0  0  0
  6 13  1  0  0  0  0
  7 12  1  0  0  0  0
  9 16  1  0  0  0  0
 10 11  2  0  0  0  0
 11 16  1  0  0  0  0
 12 14  2  0  0  0  0
 13 16  1  0  0  0  0
 14 15  1  0  0  0  0
M  END
>  <Original_Directory>
1iov_A_rec_1iow_phy_lig_tt_min_0_pocket10

>  <Original_Filename>
1iov_A_rec_1iow_phy_lig_tt_min_0_pocket10_gen_sample_1.sdf

>  <Molecule_ID>
sample_1

>  <logS>
-1.8868999

$$$$