/tmp/tmp6pgtntv0
  MOE2022           3D

 19 20  0  0  0  0  0  0  0  0999 V2000
   16.1490  -52.5010  -29.2120 C   0  0  0  0  0  0  0  0  0  0  0  0
   15.7300  -52.7940  -26.8150 C   0  0  0  0  0  0  0  0  0  0  0  0
   16.0660  -50.9770  -29.4220 C   0  0  0  0  0  0  0  0  0  0  0  0
   14.0930  -53.4590  -24.7710 N   0  0  0  0  0  0  0  0  0  0  0  0
   16.5430  -52.8920  -27.8490 N   0  0  0  0  0  0  0  0  0  0  0  0
   13.7980  -52.1700  -25.4180 C   0  0  0  0  0  0  0  0  0  0  0  0
   11.6200  -51.3420  -24.6590 C   0  0  0  0  0  0  0  0  0  0  0  0
   15.6130  -49.1140  -27.9860 O   0  0  0  0  0  0  0  0  0  0  0  0
   12.3080  -52.1090  -25.7830 C   0  0  0  0  0  0  0  0  0  0  0  0
   14.6480  -52.0430  -26.6160 N   0  0  0  0  0  0  0  0  0  0  0  0
   14.0060  -50.9990  -24.4620 C   0  0  0  0  0  0  0  0  0  0  0  0
   15.2960  -50.6290  -30.5440 O   0  0  0  0  0  0  0  0  0  0  0  0
   15.3800  -50.3030  -28.2370 C   0  0  0  0  0  0  0  0  0  0  0  0
   13.9170  -53.5910  -23.3730 C   0  0  0  0  0  0  0  0  0  0  0  0
   14.8330  -53.1800  -22.6060 O   0  0  0  0  0  0  0  0  0  0  0  0
   14.2260  -51.0660  -27.6310 C   0  0  0  0  0  0  0  0  0  0  0  0
   17.3560  -50.4490  -29.6010 O   0  0  0  0  0  0  0  0  0  0  0  0
   12.8060  -54.0620  -22.9720 O   0  0  0  0  0  0  0  0  0  0  0  0
   12.6840  -50.8330  -23.7260 C   0  0  0  0  0  0  0  0  0  0  0  0
  1  3  1  0  0  0  0
  1  5  1  0  0  0  0
  2  5  1  0  0  0  0
  2 10  1  0  0  0  0
  3 12  1  0  0  0  0
  3 13  1  0  0  0  0
  3 17  1  0  0  0  0
  4  6  1  0  0  0  0
  4 14  1  0  0  0  0
  6  9  1  0  0  0  0
  6 10  1  0  0  0  0
  6 11  1  0  0  0  0
  7  9  1  0  0  0  0
  7 19  1  0  0  0  0
  8 13  2  0  0  0  0
 10 16  1  0  0  0  0
 11 19  1  0  0  0  0
 13 16  1  0  0  0  0
 14 15  1  0  0  0  0
 14 18  2  0  0  0  0
M  END
>  <Original_Directory>
4dsc_A_rec_4dsc_a8s_lig_tt_min_0_pocket10

>  <Original_Filename>
4dsc_A_rec_4dsc_a8s_lig_tt_min_0_pocket10_gen_sample_1.sdf

>  <Molecule_ID>
sample_1

>  <logS>
0.059119999

$$$$