/tmp/tmpom4k9wkl
  MOE2022           3D

 16 17  0  0  0  0  0  0  0  0999 V2000
  -18.2030  -31.1270   36.4000 N   0  0  0  0  0  0  0  0  0  0  0  0
  -22.0890  -32.5700   35.8130 C   0  0  0  0  0  0  0  0  0  0  0  0
  -19.1140  -30.9250   37.3300 C   0  0  0  0  0  0  0  0  0  0  0  0
  -23.3450  -32.0850   39.3210 C   0  0  0  0  0  0  0  0  0  0  0  0
  -22.8280  -32.9010   36.9580 C   0  0  0  0  0  0  0  0  0  0  0  0
  -25.4050  -33.6680   41.9500 C   0  0  0  0  0  0  0  0  0  0  0  0
  -24.6550  -34.7320   42.2750 N   0  0  0  0  0  0  0  0  0  0  0  0
  -23.8350  -35.2590   41.3330 C   0  0  0  0  0  0  0  0  0  0  0  0
  -25.1770  -32.9550   40.7710 C   0  0  0  0  0  0  0  0  0  0  0  0
  -21.0490  -32.0370   38.3290 C   0  0  0  0  0  0  0  0  0  0  0  0
  -20.3720  -31.5810   37.1940 C   0  0  0  0  0  0  0  0  0  0  0  0
  -20.9480  -31.7880   35.9370 C   0  0  0  0  0  0  0  0  0  0  0  0
  -23.3990  -34.4780   40.2590 C   0  0  0  0  0  0  0  0  0  0  0  0
  -23.9710  -33.2140   40.1010 C   0  0  0  0  0  0  0  0  0  0  0  0
  -22.3930  -32.3920   38.1950 C   0  0  0  0  0  0  0  0  0  0  0  0
  -18.8650  -30.1610   38.3830 N   0  0  0  0  0  0  0  0  0  0  0  0
  1  3  2  0  0  0  0
  2  5  1  0  0  0  0
  2 12  2  0  0  0  0
  3 11  1  0  0  0  0
  3 16  1  0  0  0  0
  4 14  1  0  0  0  0
  4 15  1  0  0  0  0
  5 15  2  0  0  0  0
  6  7  2  0  0  0  0
  6  9  1  0  0  0  0
  7  8  1  0  0  0  0
  8 13  2  0  0  0  0
  9 14  2  0  0  0  0
 10 11  2  0  0  0  0
 10 15  1  0  0  0  0
 11 12  1  0  0  0  0
 13 14  1  0  0  0  0
M  END
>  <Original_Directory>
3wtl_B_rec_3u8k_09p_lig_tt_docked_6_pocket10

>  <Original_Filename>
3wtl_B_rec_3u8k_09p_lig_tt_docked_6_pocket10_gen_sample_7.sdf

>  <Molecule_ID>
sample_7

>  <logS>
-2.6960001

$$$$