/tmp/tmp4cmwys6a
  MOE2022           3D

 27 29  0  0  1  0  0  0  0  0999 V2000
  -22.4610  -19.2590   37.4700 N   0  0  0  0  0  0  0  0  0  0  0  0
  -19.4510  -21.4530   40.1200 O   0  0  0  0  0  0  0  0  0  0  0  0
  -21.4550  -16.9280   45.3600 C   0  0  1  0  0  0  0  0  0  0  0  0
  -19.7680  -20.2890   39.7680 C   0  0  3  0  0  0  0  0  0  0  0  0
  -20.7400  -18.1050   40.5040 C   0  0  0  0  0  0  0  0  0  0  0  0
  -20.8440  -20.3220   38.8310 O   0  0  0  0  0  0  0  0  0  0  0  0
  -21.1930  -19.0950   38.1850 C   0  0  3  0  0  0  0  0  0  0  0  0
  -18.4160  -17.1450   47.3130 C   0  0  0  0  0  0  0  0  0  0  0  0
  -19.5880  -19.4730   42.1420 C   0  0  0  0  0  0  0  0  0  0  0  0
  -18.0620  -14.8490   49.1140 O   0  0  0  0  0  0  0  0  0  0  0  0
  -17.7900  -14.7520   47.8980 C   0  0  0  0  0  0  0  0  0  0  0  0
  -18.4190  -15.7900   47.0180 C   0  0  3  0  0  0  0  0  0  0  0  0
  -21.7550  -16.8770   43.8700 C   0  0  3  0  0  0  0  0  0  0  0  0
  -20.0780  -18.6630   43.1560 C   0  0  0  0  0  0  0  0  0  0  0  0
  -19.9530  -16.8820   45.6460 C   0  0  3  0  0  0  0  0  0  0  0  0
  -22.2430  -15.8190   46.0030 C   0  0  0  0  0  0  0  0  0  0  0  0
  -21.1290  -17.2470   41.5260 C   0  0  0  0  0  0  0  0  0  0  0  0
  -20.0300  -19.2680   40.8310 C   0  0  0  0  0  0  0  0  0  0  0  0
  -19.2410  -15.6110   45.9100 C   0  0  0  0  0  0  0  0  0  0  0  0
  -21.2970  -17.8970   39.1140 C   0  0  0  0  0  0  0  0  0  0  0  0
  -19.5260  -17.6910   46.7620 N   0  0  0  0  0  0  0  0  0  0  0  0
  -20.9520  -17.6310   42.8590 C   0  0  0  0  0  0  0  0  0  0  0  0
  -21.9050  -18.1960   45.8650 O   0  0  0  0  0  0  0  0  0  0  0  0
  -22.1780  -14.6680   45.5380 O   0  0  0  0  0  0  0  0  0  0  0  0
  -22.9910  -16.1330   46.9580 O   0  0  0  0  0  0  0  0  0  0  0  0
  -23.2180  -16.8390   43.4890 C   0  0  0  0  0  0  0  0  0  0  0  0
  -16.9350  -13.9600   47.4610 O   0  0  0  0  0  0  0  0  0  0  0  0
  1  7  1  0  0  0  0
  2  4  1  0  0  0  0
  3 13  1  0  0  0  0
  3 15  1  0  0  0  0
  3 16  1  0  0  0  0
  3 23  1  0  0  0  0
  4  6  1  0  0  0  0
  4 18  1  0  0  0  0
  5 17  1  0  0  0  0
  5 18  2  0  0  0  0
  5 20  1  0  0  0  0
  6  7  1  0  0  0  0
  7 20  1  0  0  0  0
  8 12  1  0  0  0  0
  8 21  1  0  0  0  0
  9 14  2  0  0  0  0
  9 18  1  0  0  0  0
 10 11  1  0  0  0  0
 11 12  1  0  0  0  0
 11 27  2  0  0  0  0
 12 19  1  0  0  0  0
 13 22  1  0  0  0  0
 13 26  1  0  0  0  0
 14 22  1  0  0  0  0
 15 19  1  0  0  0  0
 15 21  1  0  0  0  0
 16 24  2  0  0  0  0
 16 25  1  0  0  0  0
 17 22  2  0  0  0  0
M  END
>  <Original_Directory>
4h2s_B_rec_3pzc_gap_lig_tt_min_0_pocket10

>  <Original_Filename>
4h2s_B_rec_3pzc_gap_lig_tt_min_0_pocket10_gen_sample_3.sdf

>  <Molecule_ID>
sample_3

>  <logS>
-0.83520001

$$$$