/tmp/tmpjwlv_0d1
  MOE2022           3D

 21 24  0  0  1  0  0  0  0  0999 V2000
  -14.4440  -22.7080   39.7270 C   0  0  0  0  0  0  0  0  0  0  0  0
  -16.5130  -23.5400   40.4550 O   0  0  0  0  0  0  0  0  0  0  0  0
  -16.6090  -21.8250   42.0480 O   0  0  0  0  0  0  0  0  0  0  0  0
  -14.3370  -22.0310   41.2700 C   0  0  1  0  0  0  0  0  0  0  0  0
  -17.2230  -24.2070   41.4120 C   0  0  3  0  0  0  0  0  0  0  0  0
  -13.9360  -22.8430   40.3960 C   0  0  3  0  0  0  0  0  0  0  0  0
  -15.0060  -23.2960   41.0470 C   0  0  0  0  0  0  0  0  0  0  0  0
  -14.2790  -25.1710   42.6110 C   0  0  0  0  0  0  0  0  0  0  0  0
  -15.1530  -23.1210   41.1600 P   0  0  0  0  0  0  0  0  0  0  0  0
  -16.6900  -21.7540   41.3230 O   0  0  0  0  0  0  0  0  0  0  0  0
  -15.2500  -25.6150   40.5380 C   0  0  0  0  0  0  0  0  0  0  0  0
  -14.5430  -22.1140   42.6250 N   0  0  0  0  0  0  0  0  0  0  0  0
  -15.8160  -22.3220   42.9800 C   0  0  3  0  0  0  0  0  0  0  0  0
  -15.6700  -24.3120   42.4760 C   0  0  0  0  0  0  0  0  0  0  0  0
  -13.7120  -23.7310   43.1460 C   0  0  3  0  0  0  0  0  0  0  0  0
  -13.3640  -23.6560   41.6150 N   0  0  0  0  0  0  0  0  0  0  0  0
  -13.6030  -24.2960   40.9630 C   0  0  0  0  0  0  0  0  0  0  0  0
  -15.5410  -21.8680   40.6490 C   0  0  3  0  0  0  0  0  0  0  0  0
  -16.4080  -24.1710   42.8930 C   0  0  3  0  0  0  0  0  0  0  0  0
  -14.2330  -24.0130   39.6280 C   0  0  0  0  0  0  0  0  0  0  0  0
  -16.5810  -25.2910   40.9020 C   0  0  0  0  0  0  0  0  0  0  0  0
  1  6  1  0  0  0  0
  1 20  1  0  0  0  0
  2  5  1  0  0  0  0
  2  9  1  0  0  0  0
  3 10  1  0  0  0  0
  3 13  1  0  0  0  0
  4  6  1  0  0  0  0
  4  7  1  0  0  0  0
  4 12  1  0  0  0  0
  4 18  1  0  0  0  0
  5 19  1  0  0  0  0
  5 21  1  0  0  0  0
  6  7  1  0  0  0  0
  8 14  1  0  0  0  0
  8 15  1  0  0  0  0
  9 18  1  0  0  0  0
 10 18  1  0  0  0  0
 11 21  1  0  0  0  0
 12 13  1  0  0  0  0
 12 15  1  0  0  0  0
 13 19  1  0  0  0  0
 14 19  1  0  0  0  0
 15 16  1  0  0  0  0
 16 17  2  0  0  0  0
M  END
>  <Original_Directory>
4ajj_B_rec_4ajl_88w_lig_tt_min_0_pocket10

>  <Original_Filename>
4ajj_B_rec_4ajl_88w_lig_tt_min_0_pocket10_gen_sample_3.sdf

>  <Molecule_ID>
sample_3

>  <logS>
-2.60817

$$$$