/tmp/tmptivtue23
  MOE2022           3D

 20 23  0  0  1  0  0  0  0  0999 V2000
   17.5510    4.2500    9.3890 C   0  0  3  0  0  0  0  0  0  0  0  0
   18.5370    1.6410    8.5010 C   0  0  3  0  0  0  0  0  0  0  0  0
   13.3220    5.1320    9.9000 O   0  0  0  0  0  0  0  0  0  0  0  0
   14.9620    4.6310   12.9800 C   0  0  0  0  0  0  0  0  0  0  0  0
   14.2340    5.4080   10.6820 C   0  0  0  0  0  0  0  0  0  0  0  0
   16.7150    3.9830   11.3270 C   0  0  0  0  0  0  0  0  0  0  0  0
   18.6560    1.0050    6.2550 C   0  0  0  0  0  0  0  0  0  0  0  0
   15.5050    5.9630   10.0810 C   0  0  0  0  0  0  0  0  0  0  0  0
   16.6300    1.6580    6.9190 N   0  0  0  0  0  0  0  0  0  0  0  0
   16.6970    5.0820   10.3840 C   0  0  3  0  0  0  0  0  0  0  0  0
   16.7970    3.4970    8.2920 C   0  0  0  0  0  0  0  0  0  0  0  0
   17.0350    1.9660    8.2820 C   0  0  3  0  0  0  0  0  0  0  0  0
   14.1070    5.2420   12.1300 C   0  0  0  0  0  0  0  0  0  0  0  0
   16.0080    3.6780   12.5500 C   0  0  0  0  0  0  0  0  0  0  0  0
   19.0000    0.6660    7.5140 N   0  0  0  0  0  0  0  0  0  0  0  0
   20.0370    0.5000   10.0280 O   0  0  0  0  0  0  0  0  0  0  0  0
   18.7340    1.0710    9.9250 C   0  0  3  0  0  0  0  0  0  0  0  0
   18.6020    2.1360   11.0200 C   0  0  0  0  0  0  0  0  0  0  0  0
   17.9490    3.4480   10.6300 C   0  0  3  0  0  0  0  0  0  0  0  0
   17.3370    0.9700    6.0490 N   0  0  0  0  0  0  0  0  0  0  0  0
  1 10  1  0  0  0  0
  1 11  1  0  0  0  0
  1 19  1  0  0  0  0
  2 12  1  0  0  0  0
  2 15  1  0  0  0  0
  2 17  1  0  0  0  0
  3  5  2  0  0  0  0
  4 13  1  0  0  0  0
  4 14  1  0  0  0  0
  5  8  1  0  0  0  0
  5 13  1  0  0  0  0
  6 10  1  0  0  0  0
  6 14  2  0  0  0  0
  6 19  1  0  0  0  0
  7 15  1  0  0  0  0
  7 20  1  0  0  0  0
  8 10  1  0  0  0  0
  9 12  1  0  0  0  0
  9 20  1  0  0  0  0
 11 12  1  0  0  0  0
 16 17  1  0  0  0  0
 17 18  1  0  0  0  0
 18 19  1  0  0  0  0
M  END
>  <Original_Directory>
3owj_A_rec_3q9z_txq_lig_tt_docked_6_pocket10

>  <Original_Filename>
3owj_A_rec_3q9z_txq_lig_tt_docked_6_pocket10_gen_sample_14.sdf

>  <Molecule_ID>
sample_14

>  <logS>
0.77618998

$$$$