/tmp/tmpxeztz2li
  MOE2022           3D

 28 32  0  0  1  0  0  0  0  0999 V2000
   40.2630  -28.0160   -0.9600 C   0  0  0  0  0  0  0  0  0  0  0  0
   36.8460  -31.3400   -1.6260 C   0  0  0  0  0  0  0  0  0  0  0  0
   40.6580  -30.9810   -3.9630 N   0  0  0  0  0  0  0  0  0  0  0  0
   41.7770  -25.5900   -4.7440 C   0  0  0  0  0  0  0  0  0  0  0  0
   36.9130  -28.8700   -1.6800 C   0  0  0  0  0  0  0  0  0  0  0  0
   37.5930  -30.1140   -1.1150 C   0  0  0  0  0  0  0  0  0  0  0  0
   40.3450  -29.7170   -4.2030 C   0  0  0  0  0  0  0  0  0  0  0  0
   33.7510  -29.9910    0.0040 O   0  0  0  0  0  0  0  0  0  0  0  0
   35.4740  -28.7560   -1.1600 C   0  0  1  0  0  0  0  0  0  0  0  0
   40.8220  -26.5040   -2.7550 C   0  0  0  0  0  0  0  0  0  0  0  0
   35.3360  -27.6400   -0.3040 O   0  0  0  0  0  0  0  0  0  0  0  0
   34.5470  -28.5350   -2.2470 N   0  0  0  0  0  0  0  0  0  0  0  0
   42.4750  -24.7330   -2.6370 O   0  0  0  0  0  0  0  0  0  0  0  0
   37.4650  -30.1070    0.3980 C   0  0  0  0  0  0  0  0  0  0  0  0
   41.7280  -25.6020   -3.3420 C   0  0  0  0  0  0  0  0  0  0  0  0
   40.5350  -31.6320   -2.8140 C   0  0  0  0  0  0  0  0  0  0  0  0
   35.1000  -30.0400   -0.3920 C   0  0  0  0  0  0  0  0  0  0  0  0
   42.9850  -25.5510   -5.4060 O   0  0  0  0  0  0  0  0  0  0  0  0
   40.0630  -28.6960   -3.2880 C   0  0  0  0  0  0  0  0  0  0  0  0
   36.0140  -30.0970    0.8310 C   0  0  0  0  0  0  0  0  0  0  0  0
   39.8180  -28.9450   -1.9020 C   0  0  0  0  0  0  0  0  0  0  0  0
   39.0660  -30.1680   -1.4810 C   0  0  0  0  0  0  0  0  0  0  0  0
   40.6400  -25.9940   -5.4630 C   0  0  0  0  0  0  0  0  0  0  0  0
   40.7540  -26.7840   -1.3780 C   0  0  0  0  0  0  0  0  0  0  0  0
   39.7920  -26.8640   -4.8820 N   0  0  0  0  0  0  0  0  0  0  0  0
   39.6980  -31.4220   -1.7410 C   0  0  0  0  0  0  0  0  0  0  0  0
   40.1530  -27.3440   -3.6640 C   0  0  3  0  0  0  0  0  0  0  0  0
   35.3720  -31.2770   -1.2420 C   0  0  0  0  0  0  0  0  0  0  0  0
  1 21  2  0  0  0  0
  1 24  1  0  0  0  0
  2  6  1  0  0  0  0
  2 28  1  0  0  0  0
  3  7  1  0  0  0  0
  3 16  2  0  0  0  0
  4 15  2  0  0  0  0
  4 18  1  0  0  0  0
  4 23  1  0  0  0  0
  5  6  1  0  0  0  0
  5  9  1  0  0  0  0
  6 14  1  0  0  0  0
  6 22  1  0  0  0  0
  7 19  2  0  0  0  0
  8 17  1  0  0  0  0
  9 11  1  0  0  0  0
  9 12  1  0  0  0  0
  9 17  1  0  0  0  0
 10 15  1  0  0  0  0
 10 24  2  0  0  0  0
 10 27  1  0  0  0  0
 13 15  1  0  0  0  0
 14 20  1  0  0  0  0
 16 26  1  0  0  0  0
 17 20  1  0  0  0  0
 17 28  1  0  0  0  0
 19 21  1  0  0  0  0
 19 27  1  0  0  0  0
 21 22  1  0  0  0  0
 22 26  2  0  0  0  0
 23 25  2  0  0  0  0
 25 27  1  0  0  0  0
M  END
>  <Original_Directory>
3q4c_A_rec_4yht_4ef_lig_tt_min_0_pocket10

>  <Original_Filename>
3q4c_A_rec_4yht_4ef_lig_tt_min_0_pocket10_gen_sample_5.sdf

>  <Molecule_ID>
sample_5

>  <logS>
-2.25388

$$$$