/tmp/tmpwufic1q6
  MOE2022           3D

 28 30  0  0  1  0  0  0  0  0999 V2000
   42.3010  -27.6440   -4.0440 O   0  0  0  0  0  0  0  0  0  0  0  0
   40.0150  -25.9520   -5.8590 C   0  0  0  0  0  0  0  0  0  0  0  0
   39.3670  -24.8540   -6.3810 C   0  0  0  0  0  0  0  0  0  0  0  0
   34.1670  -30.9550   -1.8640 C   0  0  0  0  0  0  0  0  0  0  0  0
   35.8010  -31.1020   -0.0950 C   0  0  0  0  0  0  0  0  0  0  0  0
   39.4670  -28.3860   -0.9500 C   0  0  0  0  0  0  0  0  0  0  0  0
   37.8110  -28.3770   -3.5530 C   0  0  0  0  0  0  0  0  0  0  0  0
   32.3410  -32.5070   -1.8400 O   0  0  0  0  0  0  0  0  0  0  0  0
   32.6510  -32.5720    1.0490 C   0  0  0  0  0  0  0  0  0  0  0  0
   42.9460  -24.5480   -4.4610 C   0  0  0  0  0  0  0  0  0  0  0  0
   39.1590  -28.4620   -3.8850 C   0  0  0  0  0  0  0  0  0  0  0  0
   35.2330  -28.8730   -1.0890 C   0  0  0  0  0  0  0  0  0  0  0  0
   35.9720  -28.3800   -2.1220 O   0  0  0  0  0  0  0  0  0  0  0  0
   40.8660  -25.9130   -4.7790 C   0  0  3  0  0  0  0  0  0  0  0  0
   39.6920  -23.0370   -4.7350 C   0  0  0  0  0  0  0  0  0  0  0  0
   33.7670  -32.3190    0.0710 C   0  0  3  0  0  0  0  0  0  0  0  0
   41.4590  -24.6950   -4.4020 C   0  0  0  0  0  0  0  0  0  0  0  0
   37.3320  -28.5100   -2.2580 C   0  0  0  0  0  0  0  0  0  0  0  0
   39.2460  -23.5790   -5.9010 C   0  0  0  0  0  0  0  0  0  0  0  0
   33.4490  -31.9830   -1.2590 C   0  0  3  0  0  0  0  0  0  0  0  0
   34.6530  -28.1210   -0.1980 N   0  0  0  0  0  0  0  0  0  0  0  0
   40.7230  -23.5930   -3.9810 C   0  0  0  0  0  0  0  0  0  0  0  0
   41.1720  -27.1700   -4.0250 C   0  0  0  0  0  0  0  0  0  0  0  0
   35.0900  -30.3200   -1.0260 C   0  0  3  0  0  0  0  0  0  0  0  0
   38.1830  -28.7450   -1.1420 C   0  0  0  0  0  0  0  0  0  0  0  0
   40.3150  -27.5080   -1.8020 C   0  0  0  0  0  0  0  0  0  0  0  0
   35.1170  -32.2140    0.4150 C   0  0  0  0  0  0  0  0  0  0  0  0
   40.1740  -27.7030   -3.2580 N   0  0  0  0  0  0  0  0  0  0  0  0
  1 23  2  0  0  0  0
  2  3  2  0  0  0  0
  2 14  1  0  0  0  0
  3 19  1  0  0  0  0
  4 20  1  0  0  0  0
  4 24  1  0  0  0  0
  5 24  1  0  0  0  0
  5 27  2  0  0  0  0
  6 25  1  0  0  0  0
  6 26  2  0  0  0  0
  7 11  2  0  0  0  0
  7 18  1  0  0  0  0
  8 20  1  0  0  0  0
  9 16  1  0  0  0  0
 10 17  1  0  0  0  0
 11 28  1  0  0  0  0
 12 13  1  0  0  0  0
 12 21  2  0  0  0  0
 12 24  1  0  0  0  0
 13 18  1  0  0  0  0
 14 17  1  0  0  0  0
 14 23  1  0  0  0  0
 15 19  2  0  0  0  0
 15 22  1  0  0  0  0
 16 20  1  0  0  0  0
 16 27  1  0  0  0  0
 17 22  2  0  0  0  0
 18 25  2  0  0  0  0
 23 28  1  0  0  0  0
 26 28  1  0  0  0  0
M  END
>  <Original_Directory>
3q4c_A_rec_4yht_4ef_lig_tt_min_0_pocket10

>  <Original_Filename>
3q4c_A_rec_4yht_4ef_lig_tt_min_0_pocket10_gen_sample_7.sdf

>  <Molecule_ID>
sample_7

>  <logS>
-3.6871099

$$$$