/tmp/tmpajaqq51k
  MOE2022           3D

 21 22  0  0  1  0  0  0  0  0999 V2000
   19.6280   36.9840   36.6920 C   0  0  0  0  0  0  0  0  0  0  0  0
   15.8290   40.9400   34.1740 C   0  0  0  0  0  0  0  0  0  0  0  0
   19.2150   34.1980   37.6620 O   0  0  0  0  0  0  0  0  0  0  0  0
   12.0690   40.2870   34.6150 O   0  0  0  0  0  0  0  0  0  0  0  0
   16.4390   38.0520   36.4560 C   0  0  0  0  0  0  0  0  0  0  0  0
   17.8490   40.1410   36.3380 C   0  0  0  0  0  0  0  0  0  0  0  0
   18.3820   36.3960   37.0280 C   0  0  3  0  0  0  0  0  0  0  0  0
   19.0980   39.4710   36.5430 C   0  0  0  0  0  0  0  0  0  0  0  0
   16.8990   40.8370   33.5800 O   0  0  0  0  0  0  0  0  0  0  0  0
   17.9920   35.2530   39.0180 O   0  0  0  0  0  0  0  0  0  0  0  0
   12.6800   41.3270   36.5860 O   0  0  0  0  0  0  0  0  0  0  0  0
   15.4970   40.0340   35.3390 C   0  0  3  0  0  0  0  0  0  0  0  0
   16.5620   39.3850   36.0660 C   0  0  3  0  0  0  0  0  0  0  0  0
   19.7260   38.3210   36.2350 C   0  0  0  0  0  0  0  0  0  0  0  0
   17.8000   41.3760   36.4700 O   0  0  0  0  0  0  0  0  0  0  0  0
   17.1240   36.9060   36.6730 C   0  0  0  0  0  0  0  0  0  0  0  0
   14.8830   41.8280   33.8020 N   0  0  0  0  0  0  0  0  0  0  0  0
   14.1760   39.8420   35.6320 C   0  0  0  0  0  0  0  0  0  0  0  0
   13.6490   42.0770   34.5310 C   0  0  0  0  0  0  0  0  0  0  0  0
   18.4950   35.1580   37.8670 C   0  0  0  0  0  0  0  0  0  0  0  0
   13.1370   40.8850   35.3210 C   0  0  0  0  0  0  0  0  0  0  0  0
  1  7  1  0  0  0  0
  1 14  1  0  0  0  0
  2  9  2  0  0  0  0
  2 12  1  0  0  0  0
  2 17  1  0  0  0  0
  3 20  2  0  0  0  0
  4 21  1  0  0  0  0
  5 13  1  0  0  0  0
  5 16  1  0  0  0  0
  6  8  1  0  0  0  0
  6 13  1  0  0  0  0
  6 15  2  0  0  0  0
  7 16  1  0  0  0  0
  7 20  1  0  0  0  0
  8 14  1  0  0  0  0
 10 20  1  0  0  0  0
 11 21  1  0  0  0  0
 12 13  1  0  0  0  0
 12 18  1  0  0  0  0
 17 19  1  0  0  0  0
 18 21  1  0  0  0  0
 19 21  1  0  0  0  0
M  END
>  <Original_Directory>
3g1h_A_rec_3pbw_up6_lig_tt_docked_1_pocket10

>  <Original_Filename>
3g1h_A_rec_3pbw_up6_lig_tt_docked_1_pocket10_gen_sample_3.sdf

>  <Molecule_ID>
sample_3

>  <logS>
-0.19907001

$$$$