/tmp/tmpfm9juue3
  MOE2022           3D

 24 27  0  0  1  0  0  0  0  0999 V2000
  -11.7690   22.5850   11.2940 C   0  0  0  0  0  0  0  0  0  0  0  0
  -16.4650   17.5620    5.2900 C   0  0  0  0  0  0  0  0  0  0  0  0
  -11.5980   19.4830    5.5430 C   0  0  0  0  0  0  0  0  0  0  0  0
  -15.3130   17.0240    4.4310 C   0  0  3  0  0  0  0  0  0  0  0  0
  -12.7910   20.3810    9.9470 C   0  0  0  0  0  0  0  0  0  0  0  0
  -13.1680   20.6120   11.2650 C   0  0  0  0  0  0  0  0  0  0  0  0
  -15.0600   15.6290    4.8670 N   0  0  0  0  0  0  0  0  0  0  0  0
  -11.5820   18.3980    6.4030 C   0  0  3  0  0  0  0  0  0  0  0  0
  -10.5770   20.1650    7.4780 C   0  0  3  0  0  0  0  0  0  0  0  0
  -11.3740   22.3160    9.9910 C   0  0  0  0  0  0  0  0  0  0  0  0
  -11.6460   21.1080    7.9950 C   0  0  0  0  0  0  0  0  0  0  0  0
  -13.7260   19.0110    4.3730 C   0  0  0  0  0  0  0  0  0  0  0  0
  -11.0500   18.8080    7.6190 O   0  0  0  0  0  0  0  0  0  0  0  0
  -13.6520   15.4290    5.0250 C   0  0  0  0  0  0  0  0  0  0  0  0
  -13.2450   14.8850    3.9030 O   0  0  0  0  0  0  0  0  0  0  0  0
  -11.9720   17.1100    6.0550 C   0  0  0  0  0  0  0  0  0  0  0  0
  -13.9980   17.7020    4.7220 C   0  0  0  0  0  0  0  0  0  0  0  0
  -10.4920   20.4260    5.9490 C   0  0  0  0  0  0  0  0  0  0  0  0
  -13.0610   16.8030    5.2440 C   0  0  0  0  0  0  0  0  0  0  0  0
  -12.3470   21.7650    7.2350 O   0  0  0  0  0  0  0  0  0  0  0  0
  -13.4080   14.5960    5.9780 O   0  0  0  0  0  0  0  0  0  0  0  0
  -12.6470   19.7860    4.7050 C   0  0  0  0  0  0  0  0  0  0  0  0
  -12.7220   21.7730   11.9130 C   0  0  0  0  0  0  0  0  0  0  0  0
  -11.8740   21.2140    9.3410 N   0  0  0  0  0  0  0  0  0  0  0  0
  1 10  2  0  0  0  0
  1 23  1  0  0  0  0
  2  4  1  0  0  0  0
  3  8  1  0  0  0  0
  3 18  1  0  0  0  0
  3 22  2  0  0  0  0
  4  7  1  0  0  0  0
  4 17  1  0  0  0  0
  5  6  1  0  0  0  0
  5 24  1  0  0  0  0
  6 23  2  0  0  0  0
  7 14  1  0  0  0  0
  8 13  1  0  0  0  0
  8 16  1  0  0  0  0
  9 11  1  0  0  0  0
  9 13  1  0  0  0  0
  9 18  1  0  0  0  0
 10 24  1  0  0  0  0
 11 20  2  0  0  0  0
 11 24  1  0  0  0  0
 12 17  2  0  0  0  0
 12 22  1  0  0  0  0
 14 15  1  0  0  0  0
 14 19  1  0  0  0  0
 14 21  1  0  0  0  0
 16 19  2  0  0  0  0
 17 19  1  0  0  0  0
M  END
>  <Original_Directory>
1o2o_A_rec_1o2j_656_lig_tt_min_0_pocket10

>  <Original_Filename>
1o2o_A_rec_1o2j_656_lig_tt_min_0_pocket10_gen_sample_15.sdf

>  <Molecule_ID>
sample_15

>  <logS>
-2.4026501

$$$$