/tmp/tmp7g1k8pmo
  MOE2022           3D

 21 24  0  0  1  0  0  0  0  0999 V2000
   -1.6060  -27.8680    7.0000 C   0  0  0  0  0  0  0  0  0  0  0  0
   -4.4420  -30.1230    6.4520 C   0  0  0  0  0  0  0  0  0  0  0  0
   -6.3950  -27.8320    4.4700 O   0  0  0  0  0  0  0  0  0  0  0  0
   -3.8910  -28.5480    2.7740 C   0  0  0  0  0  0  0  0  0  0  0  0
   -0.1620  -30.1450   11.4870 C   0  0  0  0  0  0  0  0  0  0  0  0
   -0.7370  -28.7850    7.5500 C   0  0  3  0  0  0  0  0  0  0  0  0
   -3.0170  -27.8450    5.0090 C   0  0  0  0  0  0  0  0  0  0  0  0
    0.5120  -29.3300   10.5920 C   0  0  0  0  0  0  0  0  0  0  0  0
   -2.6160  -28.4600    6.1950 C   0  0  0  0  0  0  0  0  0  0  0  0
    2.0480  -30.4200    8.9600 C   0  0  0  0  0  0  0  0  0  0  0  0
   -0.9800  -31.5750    9.7170 C   0  0  0  0  0  0  0  0  0  0  0  0
    0.6890  -29.7730    9.1750 C   0  0  1  0  0  0  0  0  0  0  0  0
   -0.4400  -30.6820    8.7960 C   0  0  3  0  0  0  0  0  0  0  0  0
   -3.1200  -29.7140    6.5820 C   0  0  3  0  0  0  0  0  0  0  0  0
   -0.7450  -31.3390   11.0640 C   0  0  0  0  0  0  0  0  0  0  0  0
    0.5690  -28.5630    8.2380 C   0  0  0  0  0  0  0  0  0  0  0  0
   -4.0690  -28.3060    4.2420 C   0  0  0  0  0  0  0  0  0  0  0  0
   -5.3110  -28.5700    4.8050 C   0  0  0  0  0  0  0  0  0  0  0  0
   -1.2430  -30.0790    7.8250 C   0  0  3  0  0  0  0  0  0  0  0  0
   -5.4590  -29.6540    5.6620 C   0  0  0  0  0  0  0  0  0  0  0  0
   -2.2320  -30.6170    7.0960 N   0  0  0  0  0  0  0  0  0  0  0  0
  1  6  1  0  0  0  0
  1  9  1  0  0  0  0
  2 14  1  0  0  0  0
  2 20  2  0  0  0  0
  3 18  1  0  0  0  0
  4 17  1  0  0  0  0
  5  8  2  0  0  0  0
  5 15  1  0  0  0  0
  6 16  1  0  0  0  0
  6 19  1  0  0  0  0
  7  9  2  0  0  0  0
  7 17  1  0  0  0  0
  8 12  1  0  0  0  0
  9 14  1  0  0  0  0
 10 12  1  0  0  0  0
 11 13  1  0  0  0  0
 11 15  2  0  0  0  0
 12 13  1  0  0  0  0
 12 16  1  0  0  0  0
 13 19  1  0  0  0  0
 14 21  1  0  0  0  0
 17 18  2  0  0  0  0
 18 20  1  0  0  0  0
 19 21  1  0  0  0  0
M  END
>  <Original_Directory>
3sru_X_rec_3frb_top_lig_tt_docked_7_pocket10

>  <Original_Filename>
3sru_X_rec_3frb_top_lig_tt_docked_7_pocket10_gen_sample_1.sdf

>  <Molecule_ID>
sample_1

>  <logS>
-2.37076

$$$$