/tmp/tmpm89qe3vz
  MOE2022           3D

 24 26  0  0  1  0  0  0  0  0999 V2000
  -20.2920    1.0960   -8.5530 C   0  0  0  0  0  0  0  0  0  0  0  0
  -19.1890   -1.8740   -3.5880 O   0  0  0  0  0  0  0  0  0  0  0  0
  -19.9290   -2.1260  -11.2890 O   0  0  0  0  0  0  0  0  0  0  0  0
  -18.5720   -1.8960   -1.2610 C   0  0  0  0  0  0  0  0  0  0  0  0
  -19.0270   -3.1010   -0.7080 N   0  0  0  0  0  0  0  0  0  0  0  0
  -19.4270    2.1330   -8.4500 O   0  0  0  0  0  0  0  0  0  0  0  0
  -18.4730   -0.9370   -0.3100 O   0  0  0  0  0  0  0  0  0  0  0  0
  -17.3530   -2.1340   -1.7750 O   0  0  0  0  0  0  0  0  0  0  0  0
  -20.9050   -0.5250   -4.5330 C   0  0  0  0  0  0  0  0  0  0  0  0
  -21.2010   -0.0410   -3.2620 C   0  0  0  0  0  0  0  0  0  0  0  0
  -20.1940    0.2760   -9.6690 C   0  0  0  0  0  0  0  0  0  0  0  0
  -21.0480    1.0990   -6.2620 C   0  0  0  0  0  0  0  0  0  0  0  0
  -20.5610   -0.5630   -2.1360 C   0  0  0  0  0  0  0  0  0  0  0  0
  -22.1840   -0.8310   -8.9150 C   0  0  0  0  0  0  0  0  0  0  0  0
  -22.2710   -0.7100   -6.4660 C   0  0  0  0  0  0  0  0  0  0  0  0
  -21.0880   -1.5150  -11.1130 C   0  0  0  0  0  0  0  0  0  0  0  0
  -22.0040   -0.2370   -7.6920 C   0  0  0  0  0  0  0  0  0  0  0  0
  -22.0310   -2.4970  -11.1140 O   0  0  0  0  0  0  0  0  0  0  0  0
  -21.4950    0.0010   -5.6300 C   0  0  3  0  0  0  0  0  0  0  0  0
  -21.1860   -0.6860   -9.8630 C   0  0  0  0  0  0  0  0  0  0  0  0
  -20.0000   -1.5800   -4.6410 C   0  0  0  0  0  0  0  0  0  0  0  0
  -19.5090   -1.4280   -2.3530 C   0  0  0  0  0  0  0  0  0  0  0  0
  -21.1820    0.8230   -7.5670 C   0  0  0  0  0  0  0  0  0  0  0  0
  -21.1100   -0.6360  -12.1600 O   0  0  0  0  0  0  0  0  0  0  0  0
  1  6  1  0  0  0  0
  1 11  1  0  0  0  0
  1 23  2  0  0  0  0
  2 21  1  0  0  0  0
  2 22  1  0  0  0  0
  3 16  1  0  0  0  0
  4  5  1  0  0  0  0
  4  7  1  0  0  0  0
  4  8  1  0  0  0  0
  4 22  1  0  0  0  0
  9 10  2  0  0  0  0
  9 19  1  0  0  0  0
  9 21  1  0  0  0  0
 10 13  1  0  0  0  0
 11 20  2  0  0  0  0
 12 19  1  0  0  0  0
 12 23  1  0  0  0  0
 13 22  2  0  0  0  0
 14 17  2  0  0  0  0
 14 20  1  0  0  0  0
 15 17  1  0  0  0  0
 15 19  1  0  0  0  0
 16 18  1  0  0  0  0
 16 20  1  0  0  0  0
 16 24  1  0  0  0  0
 17 23  1  0  0  0  0
M  END
>  <Original_Directory>
5akt_A_rec_4ky2_1w3_lig_tt_min_0_pocket10

>  <Original_Filename>
5akt_A_rec_4ky2_1w3_lig_tt_min_0_pocket10_gen_sample_17.sdf

>  <Molecule_ID>
sample_17

>  <logS>
-1.4443001

$$$$