/tmp/tmphzgejpnr
  MOE2022           3D

 24 26  0  0  1  0  0  0  0  0999 V2000
  -21.2220   -0.6900   -4.2870 C   0  0  0  0  0  0  0  0  0  0  0  0
  -20.3800   -1.3830   -3.4000 C   0  0  0  0  0  0  0  0  0  0  0  0
  -21.7100   -2.5620   -9.8650 C   0  0  0  0  0  0  0  0  0  0  0  0
  -20.6490    0.0030  -10.3220 C   0  0  0  0  0  0  0  0  0  0  0  0
  -21.7490    0.5550   -3.9680 C   0  0  0  0  0  0  0  0  0  0  0  0
  -20.1200    1.2320  -10.5210 O   0  0  0  0  0  0  0  0  0  0  0  0
  -21.9120    0.8210   -8.4450 N   0  0  0  0  0  0  0  0  0  0  0  0
  -20.2110   -1.0390  -11.1030 C   0  0  0  0  0  0  0  0  0  0  0  0
  -17.9010   -1.8020   -1.5500 C   0  0  0  0  0  0  0  0  0  0  0  0
  -21.5880   -1.2830   -5.4840 C   0  0  0  0  0  0  0  0  0  0  0  0
  -21.7170    1.5920   -4.8850 C   0  0  0  0  0  0  0  0  0  0  0  0
  -20.2120   -0.9780   -2.0880 C   0  0  0  0  0  0  0  0  0  0  0  0
  -20.3350   -2.4050  -10.4330 C   0  0  1  0  0  0  0  0  0  0  0  0
  -19.4240   -2.5390   -9.3540 O   0  0  0  0  0  0  0  0  0  0  0  0
  -18.4440   -2.9070   -3.6410 C   0  0  0  0  0  0  0  0  0  0  0  0
  -22.2980   -1.4540   -9.2890 C   0  0  0  0  0  0  0  0  0  0  0  0
  -21.6310    0.5580   -7.1310 C   0  0  0  0  0  0  0  0  0  0  0  0
  -17.5880   -2.6280   -2.6070 C   0  0  0  0  0  0  0  0  0  0  0  0
  -20.1260   -3.3590  -11.4960 N   0  0  0  0  0  0  0  0  0  0  0  0
  -19.0900   -1.1620   -1.3200 C   0  0  0  0  0  0  0  0  0  0  0  0
  -21.6620   -0.1930   -9.3580 C   0  0  0  0  0  0  0  0  0  0  0  0
  -19.7490   -2.5420   -3.8400 C   0  0  0  0  0  0  0  0  0  0  0  0
  -21.6030   -0.7550   -6.7350 C   0  0  0  0  0  0  0  0  0  0  0  0
  -21.4310    1.5730   -6.2200 C   0  0  0  0  0  0  0  0  0  0  0  0
  1  2  1  0  0  0  0
  1  5  1  0  0  0  0
  1 10  2  0  0  0  0
  2 12  1  0  0  0  0
  2 22  2  0  0  0  0
  3 13  1  0  0  0  0
  3 16  2  0  0  0  0
  4  6  1  0  0  0  0
  4  8  1  0  0  0  0
  4 21  2  0  0  0  0
  5 11  1  0  0  0  0
  7 17  1  0  0  0  0
  7 21  1  0  0  0  0
  8 13  1  0  0  0  0
  9 18  1  0  0  0  0
  9 20  2  0  0  0  0
 10 23  1  0  0  0  0
 11 24  2  0  0  0  0
 12 20  1  0  0  0  0
 13 14  1  0  0  0  0
 13 19  1  0  0  0  0
 15 18  2  0  0  0  0
 15 22  1  0  0  0  0
 16 21  1  0  0  0  0
 17 23  2  0  0  0  0
 17 24  1  0  0  0  0
M  END
>  <Original_Directory>
5akt_A_rec_4ky2_1w3_lig_tt_min_0_pocket10

>  <Original_Filename>
5akt_A_rec_4ky2_1w3_lig_tt_min_0_pocket10_gen_sample_3.sdf

>  <Molecule_ID>
sample_3

>  <logS>
-3.4923601

$$$$