/tmp/tmp17o5yen7
  MOE2022           3D

 20 22  0  0  1  0  0  0  0  0999 V2000
   89.6970   28.0640   46.5100 C   0  0  0  0  0  0  0  0  0  0  0  0
   91.6070   29.9310   50.1600 O   0  0  0  0  0  0  0  0  0  0  0  0
   89.8900   31.9580   50.6910 O   0  0  0  0  0  0  0  0  0  0  0  0
   91.1510   34.8770   47.9140 C   0  0  0  0  0  0  0  0  0  0  0  0
   92.0690   30.2690   48.8690 C   0  0  2  0  0  0  0  0  0  0  0  0
   91.0920   30.5480   47.1010 C   0  0  3  0  0  0  0  0  0  0  0  0
   91.3020   31.2680   48.1750 N   0  0  0  0  0  0  0  0  0  0  0  0
   91.8570   35.4060   48.9820 C   0  0  0  0  0  0  0  0  0  0  0  0
   91.4920   29.3210   47.7970 C   0  0  3  0  0  0  0  0  0  0  0  0
   90.3800   29.8190   44.8610 C   0  0  0  0  0  0  0  0  0  0  0  0
   90.7490   33.5530   47.6810 C   0  0  0  0  0  0  0  0  0  0  0  0
   90.8620   32.4810   48.5860 C   0  0  0  0  0  0  0  0  0  0  0  0
   91.6240   33.6140   50.7010 C   0  0  0  0  0  0  0  0  0  0  0  0
   90.7600   32.6790   50.0340 C   0  0  0  0  0  0  0  0  0  0  0  0
   91.9560   34.8510   50.2600 C   0  0  0  0  0  0  0  0  0  0  0  0
   90.8040   30.8140   45.7530 C   0  0  0  0  0  0  0  0  0  0  0  0
   90.5010   28.2570   47.6360 C   0  0  0  0  0  0  0  0  0  0  0  0
   93.5610   30.5960   48.8540 C   0  0  0  0  0  0  0  0  0  0  0  0
   89.5290   27.7420   44.1730 O   0  0  0  0  0  0  0  0  0  0  0  0
   89.8670   28.5570   45.2070 C   0  0  0  0  0  0  0  0  0  0  0  0
  1 17  1  0  0  0  0
  1 20  1  0  0  0  0
  2  5  1  0  0  0  0
  3 14  1  0  0  0  0
  4  8  1  0  0  0  0
  4 11  2  0  0  0  0
  5  7  1  0  0  0  0
  5  9  1  0  0  0  0
  5 18  1  0  0  0  0
  6  7  1  0  0  0  0
  6  9  1  0  0  0  0
  6 16  1  0  0  0  0
  7 12  1  0  0  0  0
  8 15  1  0  0  0  0
  9 17  1  0  0  0  0
 10 16  1  0  0  0  0
 10 20  2  0  0  0  0
 11 12  1  0  0  0  0
 12 14  2  0  0  0  0
 13 14  1  0  0  0  0
 13 15  2  0  0  0  0
 19 20  1  0  0  0  0
M  END
>  <Original_Directory>
2i0g_A_rec_1qkm_gen_lig_tt_min_0_pocket10

>  <Original_Filename>
2i0g_A_rec_1qkm_gen_lig_tt_min_0_pocket10_gen_sample_17.sdf

>  <Molecule_ID>
sample_17

>  <logS>
-1.78988

$$$$