/tmp/tmpj9kb9d5r
  MOE2022           3D

 31 34  0  0  1  0  0  0  0  0999 V2000
  -20.5300  -16.7000   40.8660 C   0  0  0  0  0  0  0  0  0  0  0  0
  -21.3270  -18.4370   37.8550 O   0  0  0  0  0  0  0  0  0  0  0  0
  -20.6830  -14.4770   44.6320 F   0  0  0  0  0  0  0  0  0  0  0  0
  -19.2700  -21.6430   47.2950 C   0  0  0  0  0  0  0  0  0  0  0  0
  -20.2160  -17.7810   41.7030 N   0  0  0  0  0  0  0  0  0  0  0  0
  -19.0830  -19.9410   41.4910 N   0  0  0  0  0  0  0  0  0  0  0  0
  -18.7850  -17.6880   44.8580 C   0  0  0  0  0  0  0  0  0  0  0  0
  -21.0150  -18.2540   39.0050 C   0  0  0  0  0  0  0  0  0  0  0  0
  -19.9640  -15.6390   40.9170 O   0  0  0  0  0  0  0  0  0  0  0  0
  -20.2770  -17.5880   43.1010 C   0  0  3  0  0  0  0  0  0  0  0  0
  -21.9090  -15.9820   38.9700 O   0  0  0  0  0  0  0  0  0  0  0  0
  -20.4300  -16.3080   46.1680 C   0  0  3  0  0  0  0  0  0  0  0  0
  -19.4810  -22.8480   47.7430 O   0  0  0  0  0  0  0  0  0  0  0  0
  -20.1350  -21.1890   46.2270 C   0  0  3  0  0  0  0  0  0  0  0  0
  -18.3650  -20.7000   47.8570 C   0  0  0  0  0  0  0  0  0  0  0  0
  -20.7350  -15.7870   44.7840 C   0  0  3  0  0  0  0  0  0  0  0  0
  -18.4910  -19.3540   47.5190 C   0  0  0  0  0  0  0  0  0  0  0  0
  -20.2830  -22.0530   45.0020 C   0  0  0  0  0  0  0  0  0  0  0  0
  -21.6450  -16.4920   46.8610 O   0  0  0  0  0  0  0  0  0  0  0  0
  -17.6930  -17.1200   44.7970 O   0  0  0  0  0  0  0  0  0  0  0  0
  -20.2120  -19.1530   39.7390 N   0  0  0  0  0  0  0  0  0  0  0  0
  -19.8270  -18.8260   47.0260 C   0  0  2  0  0  0  0  0  0  0  0  0
  -20.6420  -19.9080   46.3040 C   0  0  0  0  0  0  0  0  0  0  0  0
  -19.6100  -17.5940   46.1260 C   0  0  3  0  0  0  0  0  0  0  0  0
  -19.7990  -18.9390   41.0370 C   0  0  0  0  0  0  0  0  0  0  0  0
  -18.9590  -20.8220   40.4510 C   0  0  0  0  0  0  0  0  0  0  0  0
  -19.3980  -18.3270   43.8330 N   0  0  0  0  0  0  0  0  0  0  0  0
  -19.6030  -20.3270   39.3650 C   0  0  0  0  0  0  0  0  0  0  0  0
  -20.5050  -18.4820   48.2310 O   0  0  0  0  0  0  0  0  0  0  0  0
  -21.5640  -17.0730   39.8080 C   0  0  3  0  0  0  0  0  0  0  0  0
  -21.0700  -16.5830   43.7120 C   0  0  0  0  0  0  0  0  0  0  0  0
  1  5  1  0  0  0  0
  1  9  2  0  0  0  0
  1 30  1  0  0  0  0
  2  8  2  0  0  0  0
  3 16  1  0  0  0  0
  4 13  1  0  0  0  0
  4 14  1  0  0  0  0
  4 15  2  0  0  0  0
  5 10  1  0  0  0  0
  5 25  1  0  0  0  0
  6 25  2  0  0  0  0
  6 26  1  0  0  0  0
  7 20  2  0  0  0  0
  7 24  1  0  0  0  0
  7 27  1  0  0  0  0
  8 21  1  0  0  0  0
  8 30  1  0  0  0  0
 10 27  1  0  0  0  0
 10 31  1  0  0  0  0
 11 30  1  0  0  0  0
 12 16  1  0  0  0  0
 12 19  1  0  0  0  0
 12 24  1  0  0  0  0
 14 18  1  0  0  0  0
 14 23  1  0  0  0  0
 15 17  1  0  0  0  0
 16 31  1  0  0  0  0
 17 22  1  0  0  0  0
 21 25  1  0  0  0  0
 21 28  1  0  0  0  0
 22 23  1  0  0  0  0
 22 24  1  0  0  0  0
 22 29  1  0  0  0  0
 26 28  2  0  0  0  0
M  END
>  <Original_Directory>
4h2u_B_rec_4h2u_atp_lig_tt_min_0_pocket10

>  <Original_Filename>
4h2u_B_rec_4h2u_atp_lig_tt_min_0_pocket10_gen_sample_13.sdf

>  <Molecule_ID>
sample_13

>  <logS>
-1.4896801

$$$$