/tmp/tmp4ag_usj6
  MOE2022           3D

 31 34  0  0  1  0  0  0  0  0999 V2000
  -20.3010  -18.0410   45.9400 C   0  0  0  0  0  0  0  0  0  0  0  0
  -20.1460  -20.0720   38.4450 O   0  0  0  0  0  0  0  0  0  0  0  0
  -20.3880  -18.5310   40.2610 C   0  0  0  0  0  0  0  0  0  0  0  0
  -17.3130  -20.6610   42.9850 O   0  0  0  0  0  0  0  0  0  0  0  0
  -18.1410  -19.3630   48.1790 O   0  0  0  0  0  0  0  0  0  0  0  0
  -19.0460  -17.6960   43.7940 C   0  0  3  0  0  0  0  0  0  0  0  0
  -22.3770  -15.6680   45.6840 C   0  0  0  0  0  0  0  0  0  0  0  0
  -18.7330  -15.2180   42.3640 N   0  0  0  0  0  0  0  0  0  0  0  0
  -20.0150  -15.7300   45.0030 C   0  0  0  0  0  0  0  0  0  0  0  0
  -19.8390  -17.1210   44.9410 C   0  0  0  0  0  0  0  0  0  0  0  0
  -18.7520  -21.2000   45.3220 C   0  0  0  0  0  0  0  0  0  0  0  0
  -19.2340  -19.5500   47.6020 C   0  0  0  0  0  0  0  0  0  0  0  0
  -19.8600  -19.6900   39.6010 C   0  0  0  0  0  0  0  0  0  0  0  0
  -19.7260  -18.4790   41.5330 C   0  0  3  0  0  0  0  0  0  0  0  0
  -21.5760  -17.9020   46.5320 C   0  0  0  0  0  0  0  0  0  0  0  0
  -20.6280  -15.7570   41.1320 N   0  0  0  0  0  0  0  0  0  0  0  0
  -18.7980  -21.7630   40.4430 N   0  0  0  0  0  0  0  0  0  0  0  0
  -18.6030  -19.0760   44.0160 N   0  0  0  0  0  0  0  0  0  0  0  0
  -19.4240  -19.0720   46.3180 N   0  0  0  0  0  0  0  0  0  0  0  0
  -20.1250  -13.8260   39.6780 C   0  0  0  0  0  0  0  0  0  0  0  0
  -18.2090  -19.8060   42.9180 C   0  0  0  0  0  0  0  0  0  0  0  0
  -18.7610  -20.3170   40.4170 C   0  0  3  0  0  0  0  0  0  0  0  0
  -20.1230  -20.2860   48.0820 O   0  0  0  0  0  0  0  0  0  0  0  0
  -21.2870  -15.7490   38.9510 O   0  0  0  0  0  0  0  0  0  0  0  0
  -18.5150  -19.6660   45.3470 C   0  0  3  0  0  0  0  0  0  0  0  0
  -20.6920  -15.2040   39.8750 C   0  0  0  0  0  0  0  0  0  0  0  0
  -22.5170  -16.9200   46.2580 C   0  0  0  0  0  0  0  0  0  0  0  0
  -18.9370  -19.5980   41.7110 C   0  0  3  0  0  0  0  0  0  0  0  0
  -19.6020  -16.1190   41.9850 C   0  0  0  0  0  0  0  0  0  0  0  0
  -19.5260  -17.4280   42.4180 N   0  0  0  0  0  0  0  0  0  0  0  0
  -21.1770  -15.0480   45.3280 C   0  0  0  0  0  0  0  0  0  0  0  0
  1 10  2  0  0  0  0
  1 15  1  0  0  0  0
  1 19  1  0  0  0  0
  2 13  2  0  0  0  0
  3 13  1  0  0  0  0
  3 14  1  0  0  0  0
  4 21  2  0  0  0  0
  5 12  1  0  0  0  0
  6 10  1  0  0  0  0
  6 18  1  0  0  0  0
  6 30  1  0  0  0  0
  7 27  2  0  0  0  0
  7 31  1  0  0  0  0
  8 29  2  0  0  0  0
  9 10  1  0  0  0  0
  9 31  2  0  0  0  0
 11 25  1  0  0  0  0
 12 19  1  0  0  0  0
 12 23  2  0  0  0  0
 13 22  1  0  0  0  0
 14 28  1  0  0  0  0
 14 30  1  0  0  0  0
 15 27  1  0  0  0  0
 16 26  1  0  0  0  0
 16 29  1  0  0  0  0
 17 22  1  0  0  0  0
 18 21  1  0  0  0  0
 18 25  1  0  0  0  0
 19 25  1  0  0  0  0
 20 26  1  0  0  0  0
 21 28  1  0  0  0  0
 22 28  1  0  0  0  0
 24 26  2  0  0  0  0
 29 30  1  0  0  0  0
M  END
>  <Original_Directory>
4h2u_B_rec_4h2u_atp_lig_tt_min_0_pocket10

>  <Original_Filename>
4h2u_B_rec_4h2u_atp_lig_tt_min_0_pocket10_gen_sample_11.sdf

>  <Molecule_ID>
sample_11

>  <logS>
-1.71108

$$$$