/tmp/tmpjr_u1jag
  MOE2022           3D

 24 27  0  0  1  0  0  0  0  0999 V2000
  -69.0580  -26.3150    3.2100 C   0  0  0  0  0  0  0  0  0  0  0  0
  -63.5480  -25.2830    1.8130 C   0  0  0  0  0  0  0  0  0  0  0  0
  -73.1040  -27.6230    2.6000 C   0  0  0  0  0  0  0  0  0  0  0  0
  -68.4380  -25.1840    5.7060 C   0  0  0  0  0  0  0  0  0  0  0  0
  -71.6350  -27.3670    2.8390 C   0  0  0  0  0  0  0  0  0  0  0  0
  -71.2210  -27.0240    4.1160 C   0  0  0  0  0  0  0  0  0  0  0  0
  -66.8370  -25.4770    2.2830 C   0  0  0  0  0  0  0  0  0  0  0  0
  -67.5090  -25.1200    4.6660 C   0  0  0  0  0  0  0  0  0  0  0  0
  -64.7100  -23.0060    1.1630 C   0  0  0  0  0  0  0  0  0  0  0  0
  -67.7940  -25.6700    3.4120 C   0  0  0  0  0  0  0  0  0  0  0  0
  -65.3040  -25.1380   -0.0190 C   0  0  0  0  0  0  0  0  0  0  0  0
  -63.4840  -23.7650    1.6450 C   0  0  0  0  0  0  0  0  0  0  0  0
  -65.7480  -26.4800    2.0110 C   0  0  0  0  0  0  0  0  0  0  0  0
  -74.8560  -27.0370    0.8120 C   0  0  0  0  0  0  0  0  0  0  0  0
  -65.6100  -25.5490   -1.1180 O   0  0  0  0  0  0  0  0  0  0  0  0
  -69.9920  -26.3860    4.2890 C   0  0  0  0  0  0  0  0  0  0  0  0
  -69.6660  -25.8020    5.5190 C   0  0  0  0  0  0  0  0  0  0  0  0
  -64.6510  -26.0280    1.0190 C   0  0  3  0  0  0  0  0  0  0  0  0
  -66.9140  -24.1620    1.5690 C   0  0  0  0  0  0  0  0  0  0  0  0
  -73.7270  -26.5690    1.7070 C   0  0  0  0  0  0  0  0  0  0  0  0
  -70.6820  -27.4560    1.8010 C   0  0  0  0  0  0  0  0  0  0  0  0
  -69.4100  -26.9120    1.9760 C   0  0  0  0  0  0  0  0  0  0  0  0
  -75.2940  -28.4680    1.0750 C   0  0  0  0  0  0  0  0  0  0  0  0
  -65.8360  -23.8370    0.5360 C   0  0  3  0  0  0  0  0  0  0  0  0
  1 10  2  0  0  0  0
  1 16  1  0  0  0  0
  1 22  1  0  0  0  0
  2 12  1  0  0  0  0
  2 18  1  0  0  0  0
  3  5  1  0  0  0  0
  3 20  1  0  0  0  0
  4  8  2  0  0  0  0
  4 17  1  0  0  0  0
  5  6  2  0  0  0  0
  5 21  1  0  0  0  0
  6 16  1  0  0  0  0
  7 10  1  0  0  0  0
  7 13  2  0  0  0  0
  7 19  1  0  0  0  0
  8 10  1  0  0  0  0
  9 12  2  0  0  0  0
  9 24  1  0  0  0  0
 11 15  2  0  0  0  0
 11 18  1  0  0  0  0
 11 24  1  0  0  0  0
 13 18  1  0  0  0  0
 14 20  1  0  0  0  0
 14 23  1  0  0  0  0
 16 17  2  0  0  0  0
 19 24  1  0  0  0  0
 21 22  2  0  0  0  0
M  END
>  <Original_Directory>
1d8d_B_rec_1mzc_fpp_lig_tt_docked_3_pocket10

>  <Original_Filename>
1d8d_B_rec_1mzc_fpp_lig_tt_docked_3_pocket10_gen_sample_11.sdf

>  <Molecule_ID>
sample_11

>  <logS>
-6.18296

$$$$