/tmp/tmpkdnm2ts1
  MOE2022           3D

 29 34  0  0  1  0  0  0  0  0999 V2000
   36.2250   17.9940   87.5980 C   0  0  3  0  0  0  0  0  0  0  0  0
   43.0210   14.6040   82.6140 C   0  0  0  0  0  0  0  0  0  0  0  0
   41.9310   16.9180   85.4700 C   0  0  0  0  0  0  0  0  0  0  0  0
   44.5970   17.0740   84.5740 O   0  0  0  0  0  0  0  0  0  0  0  0
   44.4530   14.3490   80.6560 C   0  0  0  0  0  0  0  0  0  0  0  0
   34.9810   15.9590   88.0770 C   0  0  0  0  0  0  0  0  0  0  0  0
   44.4990   16.4510   82.1970 C   0  0  2  0  0  0  0  0  0  0  0  0
   42.3580   13.4130   82.2940 C   0  0  0  0  0  0  0  0  0  0  0  0
   36.2230   16.0790   88.9640 C   0  0  3  0  0  0  0  0  0  0  0  0
   37.7970   16.0650   86.9050 C   0  0  3  0  0  0  0  0  0  0  0  0
   39.2870   15.9700   86.5430 C   0  0  3  0  0  0  0  0  0  0  0  0
   44.0240   16.5040   83.6580 C   0  0  0  0  0  0  0  0  0  0  0  0
   43.9910   17.5510   81.4800 O   0  0  0  0  0  0  0  0  0  0  0  0
   37.4640   15.4760   88.2730 C   0  0  0  0  0  0  0  0  0  0  0  0
   43.9670   15.1300   81.7020 C   0  0  0  0  0  0  0  0  0  0  0  0
   41.0020   14.6010   85.2170 C   0  0  0  0  0  0  0  0  0  0  0  0
   37.4140   17.5380   86.7460 C   0  0  3  0  0  0  0  0  0  0  0  0
   41.9010   15.7140   84.7650 C   0  0  3  0  0  0  0  0  0  0  0  0
   43.8410   13.1180   80.3990 C   0  0  0  0  0  0  0  0  0  0  0  0
   42.8120   12.6500   81.2180 C   0  0  0  0  0  0  0  0  0  0  0  0
   40.8780   17.6590   86.0020 O   0  0  0  0  0  0  0  0  0  0  0  0
   34.9900   17.1740   87.1590 C   0  0  0  0  0  0  0  0  0  0  0  0
   39.5260   14.8530   85.5100 C   0  0  0  0  0  0  0  0  0  0  0  0
   38.6510   18.2370   86.5690 O   0  0  0  0  0  0  0  0  0  0  0  0
   36.4730   17.6030   89.0680 C   0  0  0  0  0  0  0  0  0  0  0  0
   45.9590   16.5290   82.1500 N   0  0  0  0  0  0  0  0  0  0  0  0
   41.4660   13.4900   85.3660 O   0  0  0  0  0  0  0  0  0  0  0  0
   39.4980   17.3250   85.8420 C   0  0  3  0  0  0  0  0  0  0  0  0
   42.9860   15.4460   83.8460 C   0  0  3  0  0  0  0  0  0  0  0  0
  1 17  1  0  0  0  0
  1 22  1  0  0  0  0
  1 25  1  0  0  0  0
  2  8  1  0  0  0  0
  2 15  2  0  0  0  0
  2 29  1  0  0  0  0
  3 18  1  0  0  0  0
  3 21  1  0  0  0  0
  4 12  2  0  0  0  0
  5 15  1  0  0  0  0
  5 19  2  0  0  0  0
  6  9  1  0  0  0  0
  6 22  1  0  0  0  0
  7 12  1  0  0  0  0
  7 13  1  0  0  0  0
  7 15  1  0  0  0  0
  7 26  1  0  0  0  0
  8 20  2  0  0  0  0
  9 14  1  0  0  0  0
  9 25  1  0  0  0  0
 10 11  1  0  0  0  0
 10 14  1  0  0  0  0
 10 17  1  0  0  0  0
 11 23  1  0  0  0  0
 11 28  1  0  0  0  0
 12 29  1  0  0  0  0
 16 18  1  0  0  0  0
 16 23  1  0  0  0  0
 16 27  2  0  0  0  0
 17 24  1  0  0  0  0
 18 29  1  0  0  0  0
 19 20  1  0  0  0  0
 21 28  1  0  0  0  0
 24 28  1  0  0  0  0
M  END
>  <Original_Directory>
1fcz_A_rec_1fcx_184_lig_tt_min_0_pocket10

>  <Original_Filename>
1fcz_A_rec_1fcx_184_lig_tt_min_0_pocket10_gen_sample_1.sdf

>  <Molecule_ID>
sample_1

>  <logS>
-3.7634201

$$$$