/tmp/tmp42hy5p3z
  MOE2022           3D

 33 39  0  0  1  0  0  0  0  0999 V2000
   12.8680   15.5410  -11.6320 C   0  0  3  0  0  0  0  0  0  0  0  0
   10.0040   13.6190  -15.0000 C   0  0  0  0  0  0  0  0  0  0  0  0
    7.1160   20.3760   -6.6960 C   0  0  0  0  0  0  0  0  0  0  0  0
    9.9090   18.2470   -7.6630 C   0  0  0  0  0  0  0  0  0  0  0  0
    8.3070   13.3260  -16.7000 C   0  0  0  0  0  0  0  0  0  0  0  0
   12.6670   15.0700  -12.9950 N   0  0  0  0  0  0  0  0  0  0  0  0
   12.5980   16.9450   -9.1890 C   0  0  2  0  0  0  0  0  0  0  0  0
    7.1140   20.4500   -9.5010 C   0  0  0  0  0  0  0  0  0  0  0  0
    7.8030   12.8000  -14.4120 C   0  0  0  0  0  0  0  0  0  0  0  0
    7.4080   12.8990  -15.7390 C   0  0  0  0  0  0  0  0  0  0  0  0
    8.3630   18.3360   -9.5030 C   0  0  0  0  0  0  0  0  0  0  0  0
    9.0280   13.3550  -14.0270 C   0  0  0  0  0  0  0  0  0  0  0  0
   11.7020   14.0190  -13.2710 C   0  0  3  0  0  0  0  0  0  0  0  0
   11.3070   18.2900   -7.4070 C   0  0  0  0  0  0  0  0  0  0  0  0
   11.3720   16.2810   -9.7730 C   0  0  3  0  0  0  0  0  0  0  0  0
    9.0220   18.8940   -6.8630 N   0  0  0  0  0  0  0  0  0  0  0  0
    9.4540   17.7170   -8.8830 C   0  0  0  0  0  0  0  0  0  0  0  0
   12.3570   17.8420   -8.0430 C   0  0  0  0  0  0  0  0  0  0  0  0
    6.2770   21.2030   -7.4020 N   0  0  0  0  0  0  0  0  0  0  0  0
   11.6390   15.3530  -10.8090 C   0  0  3  0  0  0  0  0  0  0  0  0
   10.8570   14.2690  -10.9890 N   0  0  0  0  0  0  0  0  0  0  0  0
    9.6100   13.6670  -16.3430 C   0  0  0  0  0  0  0  0  0  0  0  0
   10.0920   16.6050   -9.4490 C   0  0  0  0  0  0  0  0  0  0  0  0
   11.1940   14.2470  -14.6170 C   0  0  0  0  0  0  0  0  0  0  0  0
   13.2600   17.0170  -11.6420 C   0  0  0  0  0  0  0  0  0  0  0  0
    7.0790   20.3750   -5.4540 O   0  0  0  0  0  0  0  0  0  0  0  0
    7.9560   19.4960   -7.4470 C   0  0  0  0  0  0  0  0  0  0  0  0
    7.7980   19.4250   -8.8360 C   0  0  0  0  0  0  0  0  0  0  0  0
   10.6160   13.9200  -12.2850 C   0  0  0  0  0  0  0  0  0  0  0  0
    6.3700   21.3330   -8.7490 C   0  0  0  0  0  0  0  0  0  0  0  0
   13.3780   17.6560  -10.2810 C   0  0  0  0  0  0  0  0  0  0  0  0
   13.4490   15.8960   -8.7060 O   0  0  0  0  0  0  0  0  0  0  0  0
    9.3520   13.4740  -12.6740 C   0  0  0  0  0  0  0  0  0  0  0  0
  1  6  1  0  0  0  0
  1 20  1  0  0  0  0
  1 25  1  0  0  0  0
  2 12  1  0  0  0  0
  2 22  2  0  0  0  0
  2 24  1  0  0  0  0
  3 19  1  0  0  0  0
  3 26  2  0  0  0  0
  3 27  1  0  0  0  0
  4 14  1  0  0  0  0
  4 16  2  0  0  0  0
  4 17  1  0  0  0  0
  5 10  2  0  0  0  0
  5 22  1  0  0  0  0
  6 13  1  0  0  0  0
  7 15  1  0  0  0  0
  7 18  1  0  0  0  0
  7 31  1  0  0  0  0
  7 32  1  0  0  0  0
  8 28  1  0  0  0  0
  8 30  1  0  0  0  0
  9 10  1  0  0  0  0
  9 12  2  0  0  0  0
 11 17  2  0  0  0  0
 11 28  1  0  0  0  0
 12 33  1  0  0  0  0
 13 24  1  0  0  0  0
 13 29  1  0  0  0  0
 14 18  2  0  0  0  0
 15 20  1  0  0  0  0
 15 23  1  0  0  0  0
 16 27  1  0  0  0  0
 17 23  1  0  0  0  0
 19 30  2  0  0  0  0
 20 21  1  0  0  0  0
 21 29  1  0  0  0  0
 25 31  1  0  0  0  0
 27 28  2  0  0  0  0
 29 33  2  0  0  0  0
M  END
>  <Original_Directory>
4clb_A_rec_4bw3_9bm_lig_tt_min_0_pocket10

>  <Original_Filename>
4clb_A_rec_4bw3_9bm_lig_tt_min_0_pocket10_gen_sample_9.sdf

>  <Molecule_ID>
sample_9

>  <logS>
-4.39992

$$$$