/tmp/tmplr88p7vx
  MOE2022           3D

 29 32  0  0  1  0  0  0  0  0999 V2000
   -7.7350  -25.9220    1.2600 C   0  0  0  0  0  0  0  0  0  0  0  0
   -0.0720  -29.9450    8.5680 C   0  0  0  0  0  0  0  0  0  0  0  0
   -1.2680  -29.5600    6.5460 C   0  0  0  0  0  0  0  0  0  0  0  0
   -5.9760  -31.5310    5.3840 C   0  0  0  0  0  0  0  0  0  0  0  0
   -5.0570  -32.5750    5.5280 C   0  0  0  0  0  0  0  0  0  0  0  0
   -2.3850  -30.9120    4.8770 O   0  0  0  0  0  0  0  0  0  0  0  0
   -4.9450  -29.2710    6.0090 C   0  0  0  0  0  0  0  0  0  0  0  0
   -2.1550  -29.8460    5.4020 C   0  0  0  0  0  0  0  0  0  0  0  0
   -6.0020  -26.9410    4.3660 N   0  0  0  0  0  0  0  0  0  0  0  0
   -5.4620  -33.8780    5.2420 C   0  0  0  0  0  0  0  0  0  0  0  0
   -7.7030  -24.5380    1.4120 C   0  0  0  0  0  0  0  0  0  0  0  0
   -7.1270  -31.7460    4.6270 C   0  0  0  0  0  0  0  0  0  0  0  0
   -1.1600  -28.1950    6.7210 C   0  0  0  0  0  0  0  0  0  0  0  0
   -7.2570  -26.7310    2.2820 C   0  0  0  0  0  0  0  0  0  0  0  0
    0.1570  -28.5780    8.6840 C   0  0  0  0  0  0  0  0  0  0  0  0
   -6.7760  -26.1700    3.4630 C   0  0  0  0  0  0  0  0  0  0  0  0
   -4.2290  -28.4850    5.1380 C   0  0  3  0  0  0  0  0  0  0  0  0
   -7.4110  -24.0000    2.6550 C   0  0  0  0  0  0  0  0  0  0  0  0
   -8.9160  -33.3090    4.2840 O   0  0  0  0  0  0  0  0  0  0  0  0
   -0.3490  -27.6930    7.7230 C   0  0  0  0  0  0  0  0  0  0  0  0
   -4.5150  -27.8710    2.9330 O   0  0  0  0  0  0  0  0  0  0  0  0
   -4.9300  -27.7410    4.0770 C   0  0  0  0  0  0  0  0  0  0  0  0
   -5.8160  -30.2750    6.0920 C   0  0  0  0  0  0  0  0  0  0  0  0
   -2.0370  -27.4260    5.7900 C   0  0  0  0  0  0  0  0  0  0  0  0
   -6.7810  -34.1250    4.8520 C   0  0  0  0  0  0  0  0  0  0  0  0
   -0.6870  -30.4610    7.4320 C   0  0  0  0  0  0  0  0  0  0  0  0
   -7.5820  -33.0550    4.4560 C   0  0  0  0  0  0  0  0  0  0  0  0
   -7.0500  -24.8300    3.7110 C   0  0  0  0  0  0  0  0  0  0  0  0
   -2.7340  -28.5150    4.9770 C   0  0  3  0  0  0  0  0  0  0  0  0
  1 11  1  0  0  0  0
  1 14  2  0  0  0  0
  2 15  2  0  0  0  0
  2 26  1  0  0  0  0
  3  8  1  0  0  0  0
  3 13  1  0  0  0  0
  3 26  2  0  0  0  0
  4  5  2  0  0  0  0
  4 12  1  0  0  0  0
  4 23  1  0  0  0  0
  5 10  1  0  0  0  0
  6  8  2  0  0  0  0
  7 17  1  0  0  0  0
  7 23  1  0  0  0  0
  8 29  1  0  0  0  0
  9 16  1  0  0  0  0
  9 22  1  0  0  0  0
 10 25  2  0  0  0  0
 11 18  2  0  0  0  0
 12 27  2  0  0  0  0
 13 20  2  0  0  0  0
 13 24  1  0  0  0  0
 14 16  1  0  0  0  0
 15 20  1  0  0  0  0
 16 28  2  0  0  0  0
 17 22  1  0  0  0  0
 17 29  1  0  0  0  0
 18 28  1  0  0  0  0
 19 27  1  0  0  0  0
 21 22  2  0  0  0  0
 24 29  1  0  0  0  0
 25 27  1  0  0  0  0
M  END
>  <Original_Directory>
4lag_X_rec_4lag_1vn_lig_tt_docked_0_pocket10

>  <Original_Filename>
4lag_X_rec_4lag_1vn_lig_tt_docked_0_pocket10_gen_sample_12.sdf

>  <Molecule_ID>
sample_12

>  <logS>
-5.3656902

$$$$