/tmp/tmppe92qb_7
  MOE2022           3D

 29 32  0  0  1  0  0  0  0  0999 V2000
    3.6600   44.6390    3.2660 N   0  0  0  0  0  0  0  0  0  0  0  0
    2.4130   45.1730    3.3050 C   0  0  0  0  0  0  0  0  0  0  0  0
    1.8640   44.8480   -1.6240 C   0  0  0  0  0  0  0  0  0  0  0  0
    5.2140   45.8710    6.3860 C   0  0  0  0  0  0  0  0  0  0  0  0
    2.0150   44.4100    0.8680 C   0  0  0  0  0  0  0  0  0  0  0  0
    5.1940   47.0020    7.1490 O   0  0  0  0  0  0  0  0  0  0  0  0
    4.2250   45.6460    5.3880 C   0  0  0  0  0  0  0  0  0  0  0  0
    1.4780   45.8490   -2.5380 O   0  0  0  0  0  0  0  0  0  0  0  0
    1.4300   45.3280   -0.2180 C   0  0  0  0  0  0  0  0  0  0  0  0
    1.1980   43.6260   -1.8930 O   0  0  0  0  0  0  0  0  0  0  0  0
    6.3040   45.0060    6.5140 C   0  0  0  0  0  0  0  0  0  0  0  0
    1.4180   44.8760    2.1990 C   0  0  3  0  0  0  0  0  0  0  0  0
   -0.8590   46.4760    9.2780 C   0  0  0  0  0  0  0  0  0  0  0  0
    1.2140   47.3330    6.7740 C   0  0  0  0  0  0  0  0  0  0  0  0
    0.8920   47.7960    8.1870 C   0  0  0  0  0  0  0  0  0  0  0  0
    2.9260   46.2340    5.4490 C   0  0  0  0  0  0  0  0  0  0  0  0
    4.5410   44.7730    4.3210 C   0  0  0  0  0  0  0  0  0  0  0  0
    6.4630   43.9680    5.5840 C   0  0  0  0  0  0  0  0  0  0  0  0
    1.5650   46.8570    9.1910 C   0  0  0  0  0  0  0  0  0  0  0  0
   -0.5820   47.7660    8.5620 C   0  0  0  0  0  0  0  0  0  0  0  0
    0.6770   46.5380    4.5440 C   0  0  0  0  0  0  0  0  0  0  0  0
    3.2610   44.6970   -1.6880 O   0  0  0  0  0  0  0  0  0  0  0  0
    1.9880   46.0160    4.4120 C   0  0  0  0  0  0  0  0  0  0  0  0
    0.3420   44.0780    2.6220 O   0  0  0  0  0  0  0  0  0  0  0  0
    2.5510   47.0680    6.5050 C   0  0  0  0  0  0  0  0  0  0  0  0
    0.2890   47.1640    5.7340 C   0  0  0  0  0  0  0  0  0  0  0  0
    7.1750   45.1920    7.5470 O   0  0  0  0  0  0  0  0  0  0  0  0
    0.4950   45.8520    9.5780 C   0  0  0  0  0  0  0  0  0  0  0  0
    5.6670   43.9350    4.4340 C   0  0  0  0  0  0  0  0  0  0  0  0
  1  2  2  0  0  0  0
  1 17  1  0  0  0  0
  2 12  1  0  0  0  0
  2 23  1  0  0  0  0
  3  8  1  0  0  0  0
  3  9  1  0  0  0  0
  3 10  1  0  0  0  0
  3 22  1  0  0  0  0
  4  6  1  0  0  0  0
  4  7  2  0  0  0  0
  4 11  1  0  0  0  0
  5  9  1  0  0  0  0
  5 12  1  0  0  0  0
  7 16  1  0  0  0  0
  7 17  1  0  0  0  0
 11 18  2  0  0  0  0
 11 27  1  0  0  0  0
 12 24  1  0  0  0  0
 13 20  1  0  0  0  0
 13 28  1  0  0  0  0
 14 15  1  0  0  0  0
 14 25  1  0  0  0  0
 14 26  2  0  0  0  0
 15 19  1  0  0  0  0
 15 20  1  0  0  0  0
 16 23  1  0  0  0  0
 16 25  2  0  0  0  0
 17 29  2  0  0  0  0
 18 29  1  0  0  0  0
 19 28  1  0  0  0  0
 21 23  2  0  0  0  0
 21 26  1  0  0  0  0
M  END
>  <Original_Directory>
4p7e_A_rec_5cf6_50o_lig_tt_docked_0_pocket10

>  <Original_Filename>
4p7e_A_rec_5cf6_50o_lig_tt_docked_0_pocket10_gen_sample_17.sdf

>  <Molecule_ID>
sample_17

>  <logS>
-5.3919401

$$$$