/tmp/tmplb7u767i
  MOE2022           3D

 15 17  0  0  1  0  0  0  0  0999 V2000
   28.3030   44.4080   16.6780 C   0  0  0  0  0  0  0  0  0  0  0  0
   28.0030   44.9770   15.4390 C   0  0  0  0  0  0  0  0  0  0  0  0
   27.0890   44.2970   14.6120 C   0  0  0  0  0  0  0  0  0  0  0  0
   28.9700   44.8590   17.8520 C   0  0  3  0  0  0  0  0  0  0  0  0
   29.1930   46.1750   19.9510 C   0  0  1  0  0  0  0  0  0  0  0  0
   28.8480   46.2050   18.4740 C   0  0  0  0  0  0  0  0  0  0  0  0
   26.6050   43.0360   14.9710 C   0  0  0  0  0  0  0  0  0  0  0  0
   27.9980   43.0550   16.9170 C   0  0  0  0  0  0  0  0  0  0  0  0
   28.6490   42.7080   18.1460 C   0  0  0  0  0  0  0  0  0  0  0  0
   30.3990   45.2790   20.2300 C   0  0  0  0  0  0  0  0  0  0  0  0
   29.4770   47.4830   20.3670 O   0  0  0  0  0  0  0  0  0  0  0  0
   26.9900   42.4460   16.1690 C   0  0  0  0  0  0  0  0  0  0  0  0
   29.3390   43.7890   18.5720 N   0  0  0  0  0  0  0  0  0  0  0  0
   28.0600   45.6770   20.7080 N   0  0  0  0  0  0  0  0  0  0  0  0
   30.2470   43.8460   19.7020 C   0  0  0  0  0  0  0  0  0  0  0  0
  1  2  1  0  0  0  0
  1  4  1  0  0  0  0
  1  8  2  0  0  0  0
  2  3  2  0  0  0  0
  3  7  1  0  0  0  0
  4  6  1  0  0  0  0
  4 13  1  0  0  0  0
  5  6  1  0  0  0  0
  5 10  1  0  0  0  0
  5 11  1  0  0  0  0
  5 14  1  0  0  0  0
  7 12  2  0  0  0  0
  8  9  1  0  0  0  0
  8 12  1  0  0  0  0
  9 13  1  0  0  0  0
 10 15  1  0  0  0  0
 13 15  1  0  0  0  0
M  END
>  <Original_Directory>
1n7i_A_rec_2g70_hnt_lig_tt_docked_1_pocket10

>  <Original_Filename>
1n7i_A_rec_2g70_hnt_lig_tt_docked_1_pocket10_gen_sample_17.sdf

>  <Molecule_ID>
sample_17

>  <logS>
-1.47589

$$$$