/tmp/tmp3e1sz57t
  MOE2022           3D

  9  9  0  0  1  0  0  0  0  0999 V2000
   38.2740   23.3150  -10.4350 C   0  0  3  0  0  0  0  0  0  0  0  0
   37.8300   23.4780   -8.9840 C   0  0  3  0  0  0  0  0  0  0  0  0
   37.7260   24.2650  -11.3280 O   0  0  0  0  0  0  0  0  0  0  0  0
   38.5930   21.9870   -7.3390 O   0  0  0  0  0  0  0  0  0  0  0  0
   39.0450   23.0600   -8.1370 C   0  0  0  0  0  0  0  0  0  0  0  0
   39.5350   24.1320   -7.3420 O   0  0  0  0  0  0  0  0  0  0  0  0
   39.7790   23.3500  -10.4340 C   0  0  0  0  0  0  0  0  0  0  0  0
   40.1220   22.6400   -9.1410 C   0  0  0  0  0  0  0  0  0  0  0  0
   37.3970   24.7930   -8.6910 O   0  0  0  0  0  0  0  0  0  0  0  0
  1  2  1  0  0  0  0
  1  3  1  0  0  0  0
  1  7  1  0  0  0  0
  2  5  1  0  0  0  0
  2  9  1  0  0  0  0
  4  5  1  0  0  0  0
  5  6  1  0  0  0  0
  5  8  1  0  0  0  0
  7  8  1  0  0  0  0
M  END
>  <Original_Directory>
1p8r_A_rec_1hqg_orn_lig_tt_min_0_pocket10

>  <Original_Filename>
1p8r_A_rec_1hqg_orn_lig_tt_min_0_pocket10_gen_sample_5.sdf

>  <Molecule_ID>
sample_5

>  <logS>
0.61128002

$$$$