/tmp/tmpwfgv4n1d
  MOE2022           3D

 29 31  0  0  1  0  0  0  0  0999 V2000
  -11.9920   -6.8870   10.2560 O   0  0  0  0  0  0  0  0  0  0  0  0
  -18.0900   -2.8710   10.7220 C   0  0  0  0  0  0  0  0  0  0  0  0
  -15.9260   -4.3310   10.0020 O   0  0  0  0  0  0  0  0  0  0  0  0
   -9.6010   -4.6890    8.9110 C   0  0  0  0  0  0  0  0  0  0  0  0
   -6.6090   -2.8420    6.6630 O   0  0  0  0  0  0  0  0  0  0  0  0
  -18.1070   -5.5130   10.1580 O   0  0  0  0  0  0  0  0  0  0  0  0
  -17.9300   -1.2230    8.6880 O   0  0  0  0  0  0  0  0  0  0  0  0
  -10.8580   -4.6420    8.4010 N   0  0  0  0  0  0  0  0  0  0  0  0
  -18.7790   -3.5050    8.2630 O   0  0  0  0  0  0  0  0  0  0  0  0
   -9.9690   -0.6130    5.6100 N   0  0  0  0  0  0  0  0  0  0  0  0
   -7.7790   -2.8570    6.2750 C   0  0  0  0  0  0  0  0  0  0  0  0
  -18.8060   -2.3280    9.1630 P   0  0  0  0  0  0  0  0  0  0  0  0
  -11.0430   -4.4700    7.0650 C   0  0  0  0  0  0  0  0  0  0  0  0
  -13.0320   -3.8790    9.0220 O   0  0  0  0  0  0  0  0  0  0  0  0
   -9.5570   -1.8480    5.3490 C   0  0  0  0  0  0  0  0  0  0  0  0
  -10.0440   -3.7910    6.3640 C   0  0  0  0  0  0  0  0  0  0  0  0
   -8.7400   -3.7460    6.8920 C   0  0  0  0  0  0  0  0  0  0  0  0
  -20.2210   -1.8990    9.4730 O   0  0  0  0  0  0  0  0  0  0  0  0
  -13.5990   -3.6760   10.3190 C   0  0  3  0  0  0  0  0  0  0  0  0
  -15.4120   -2.3760   11.2380 O   0  0  0  0  0  0  0  0  0  0  0  0
  -15.0450   -3.2320   10.1790 C   0  0  3  0  0  0  0  0  0  0  0  0
  -11.9610   -4.7090    9.2000 C   0  0  3  0  0  0  0  0  0  0  0  0
  -13.3920   -4.9970   11.0490 C   0  0  0  0  0  0  0  0  0  0  0  0
   -8.5170   -4.2860    8.1610 C   0  0  0  0  0  0  0  0  0  0  0  0
   -8.2120   -2.0700    5.2560 N   0  0  0  0  0  0  0  0  0  0  0  0
  -10.3810   -2.9110    5.3580 N   0  0  0  0  0  0  0  0  0  0  0  0
  -16.9650   -4.7610   12.2780 O   0  0  0  0  0  0  0  0  0  0  0  0
  -12.0720   -5.4830   10.4580 C   0  0  3  0  0  0  0  0  0  0  0  0
  -17.2840   -4.4830   10.8450 P   0  0  2  0  0  0  0  0  0  0  0  0
  1 28  1  0  0  0  0
  2 12  1  0  0  0  0
  2 29  1  0  0  0  0
  3 21  1  0  0  0  0
  3 29  1  0  0  0  0
  4  8  1  0  0  0  0
  4 24  1  0  0  0  0
  5 11  2  0  0  0  0
  6 29  2  0  0  0  0
  7 12  1  0  0  0  0
  8 13  1  0  0  0  0
  8 22  1  0  0  0  0
  9 12  2  0  0  0  0
 10 15  1  0  0  0  0
 11 17  1  0  0  0  0
 11 25  1  0  0  0  0
 12 18  1  0  0  0  0
 13 16  2  0  0  0  0
 14 19  1  0  0  0  0
 14 22  1  0  0  0  0
 15 25  2  0  0  0  0
 15 26  1  0  0  0  0
 16 17  1  0  0  0  0
 16 26  1  0  0  0  0
 17 24  2  0  0  0  0
 19 21  1  0  0  0  0
 19 23  1  0  0  0  0
 20 21  1  0  0  0  0
 22 28  1  0  0  0  0
 23 28  1  0  0  0  0
 27 29  1  0  0  0  0
M  END
>  <Original_Directory>
5wrq_B_rec_1uk1_frq_lig_tt_docked_4_pocket10

>  <Original_Filename>
5wrq_B_rec_1uk1_frq_lig_tt_docked_4_pocket10_gen_sample_3.sdf

>  <Molecule_ID>
sample_3

>  <logS>
0.19723

$$$$