NS-014956653-0000
  MOE2022           3D

 32 34  0  0  1  0  0  0  0  0999 V2000
   -4.3100   -1.0630   -0.0310 S   0  0  0  0  0  0  0  0  0  0  0  0
   -0.6040    0.6640   -0.3670 C   0  0  0  0  0  0  0  0  0  0  0  0
    0.2050    1.5180    0.4970 C   0  0  0  0  0  0  0  0  0  0  0  0
    4.3800    0.8370    0.4830 C   0  0  0  0  0  0  0  0  0  0  0  0
   -2.7010   -0.5530   -0.6720 C   0  0  0  0  0  0  0  0  0  0  0  0
   -1.8620    0.2520    0.0960 C   0  0  0  0  0  0  0  0  0  0  0  0
    1.5380    1.2900    0.6350 N   0  0  0  0  0  0  0  0  0  0  0  0
    5.5680    0.4260   -1.3610 N   0  0  0  0  0  0  0  0  0  0  0  0
    5.2980    1.3440   -0.3670 C   0  0  0  0  0  0  0  0  0  0  0  0
    2.4500    2.2440    1.3080 C   0  0  3  0  0  0  0  0  0  0  0  0
    4.0690   -0.5000   -0.0210 C   0  0  0  0  0  0  0  0  0  0  0  0
    2.6860    3.5520    0.5420 C   0  0  0  0  0  0  0  0  0  0  0  0
   -5.2840    0.2590   -0.2720 N   0  0  0  0  0  0  0  0  0  0  0  0
    3.7790    1.5510    1.6590 C   0  0  0  0  0  0  0  0  0  0  0  0
   -4.7810   -2.1470   -0.8250 O   0  0  0  0  0  0  0  0  0  0  0  0
   -4.1760   -1.2970    1.3660 O   0  0  0  0  0  0  0  0  0  0  0  0
   -0.1900    0.2430   -1.6480 C   0  0  0  0  0  0  0  0  0  0  0  0
    4.8260   -0.7260   -1.2060 C   0  0  0  0  0  0  0  0  0  0  0  0
   -0.2730    2.4180    1.1740 O   0  0  0  0  0  0  0  0  0  0  0  0
   -2.2590   -0.9740   -1.9320 C   0  0  0  0  0  0  0  0  0  0  0  0
    2.9260    4.6330    1.0670 O   0  0  0  0  0  0  0  0  0  0  0  0
   -1.0180   -0.5800   -2.4150 C   0  0  0  0  0  0  0  0  0  0  0  0
    2.7330    3.5870   -0.8060 O   0  0  0  0  0  0  0  0  0  0  0  0
    1.3260    0.7240   -2.3560 Cl  0  0  0  0  0  0  0  0  0  0  0  0
    3.2000   -1.5330    0.3920 C   0  0  0  0  0  0  0  0  0  0  0  0
   -5.7510    0.5650   -1.6240 C   0  0  0  0  0  0  0  0  0  0  0  0
   -5.1190    1.4380    0.5820 C   0  0  0  0  0  0  0  0  0  0  0  0
    4.7240   -1.9150   -1.9470 C   0  0  0  0  0  0  0  0  0  0  0  0
   -6.4610    2.0700    0.9590 C   0  0  0  0  0  0  0  0  0  0  0  0
   -7.1250   -0.0520   -1.8840 C   0  0  0  0  0  0  0  0  0  0  0  0
    3.0870   -2.7290   -0.3410 C   0  0  0  0  0  0  0  0  0  0  0  0
    3.8470   -2.9210   -1.5090 C   0  0  0  0  0  0  0  0  0  0  0  0
  1  5  1  0  0  0  0
  1 13  1  0  0  0  0
  1 15  2  0  0  0  0
  1 16  2  0  0  0  0
  2  3  1  0  0  0  0
  2  6  2  0  0  0  0
  2 17  1  0  0  0  0
  3  7  1  0  0  0  0
  3 19  2  0  0  0  0
  4  9  2  0  0  0  0
  4 11  1  0  0  0  0
  4 14  1  0  0  0  0
  5  6  1  0  0  0  0
  5 20  2  0  0  0  0
  7 10  1  0  0  0  0
  8  9  1  0  0  0  0
  8 18  1  0  0  0  0
 10 12  1  0  0  0  0
 10 14  1  0  0  0  0
 11 18  2  0  0  0  0
 11 25  1  0  0  0  0
 12 21  2  0  0  0  0
 12 23  1  0  0  0  0
 13 26  1  0  0  0  0
 13 27  1  0  0  0  0
 17 22  2  0  0  0  0
 17 24  1  0  0  0  0
 18 28  1  0  0  0  0
 20 22  1  0  0  0  0
 25 31  2  0  0  0  0
 26 30  1  0  0  0  0
 27 29  1  0  0  0  0
 28 32  2  0  0  0  0
 31 32  1  0  0  0  0
M  END
>  <NScode>
NS-014956653-0000

>  <a_acc>
4

>  <a_don>
4

>  <chiral>
1

>  <opr_nrot>
8

>  <Weight>
477.96899

>  <druglike>
1

>  <lip_druglike>
1

>  <lip_violation>
0

>  <logS>
-4.94839

$$$$
