NS-018330931-0000
  MOE2022           3D

 20 20  0  0  0  0  0  0  0  0999 V2000
   -2.3920    0.0020   -0.4640 C   0  0  0  0  0  0  0  0  0  0  0  0
   -0.1310    0.6140   -1.0150 N   0  0  0  0  0  0  0  0  0  0  0  0
   -1.3790    0.9360   -0.5150 C   0  0  0  0  0  0  0  0  0  0  0  0
    0.1610   -0.6760   -1.4650 C   0  0  0  0  0  0  0  0  0  0  0  0
    2.7960    0.5130    0.0200 N   0  0  0  0  0  0  0  0  0  0  0  0
   -3.6930    0.3800    0.0770 C   0  0  0  0  0  0  0  0  0  0  0  0
   -2.1310   -1.3220   -0.9590 C   0  0  0  0  0  0  0  0  0  0  0  0
    3.8220    0.2160    0.8660 C   0  0  0  0  0  0  0  0  0  0  0  0
    1.9570    1.5920    0.0620 C   0  0  0  0  0  0  0  0  0  0  0  0
   -0.8970   -1.6400   -1.4400 C   0  0  0  0  0  0  0  0  0  0  0  0
    0.9220    1.6640   -1.0480 C   0  0  0  0  0  0  0  0  0  0  0  0
    1.3180   -0.9110   -1.8390 O   0  0  0  0  0  0  0  0  0  0  0  0
    4.2500    0.9520    1.7370 O   0  0  0  0  0  0  0  0  0  0  0  0
   -4.0490    1.5440    0.2230 O   0  0  0  0  0  0  0  0  0  0  0  0
    2.0050    2.4140    0.9490 O   0  0  0  0  0  0  0  0  0  0  0  0
    4.3420   -1.0130    0.6190 N   0  0  0  0  0  0  0  0  0  0  0  0
   -4.5760   -0.5970    0.4640 N   0  0  0  0  0  0  0  0  0  0  0  0
    5.5040   -1.5260    1.3320 C   0  0  0  0  0  0  0  0  0  0  0  0
   -5.8660   -0.2890    1.0960 C   0  0  0  0  0  0  0  0  0  0  0  0
    6.7760   -1.3840    0.5020 C   0  0  0  0  0  0  0  0  0  0  0  0
  1  3  2  0  0  0  0
  1  6  1  0  0  0  0
  1  7  1  0  0  0  0
  2  3  1  0  0  0  0
  2  4  1  0  0  0  0
  2 11  1  0  0  0  0
  4 10  1  0  0  0  0
  4 12  2  0  0  0  0
  5  8  1  0  0  0  0
  5  9  1  0  0  0  0
  6 14  2  0  0  0  0
  6 17  1  0  0  0  0
  7 10  2  0  0  0  0
  8 13  2  0  0  0  0
  8 16  1  0  0  0  0
  9 11  1  0  0  0  0
  9 15  2  0  0  0  0
 16 18  1  0  0  0  0
 17 19  1  0  0  0  0
 18 20  1  0  0  0  0
M  END
>  <NScode>
NS-018330931-0000

>  <a_acc>
4

>  <a_don>
3

>  <chiral>
0

>  <opr_nrot>
4

>  <Weight>
280.284

>  <druglike>
1

>  <lip_druglike>
1

>  <lip_violation>
0

>  <logS>
-1.49482

$$$$
