NS-012729767-0000
  MOE2022           3D

 27 31  0  0  0  0  0  0  0  0999 V2000
    3.5620   -2.0240   -0.3980 O   0  0  0  0  0  0  0  0  0  0  0  0
    2.8240   -1.0430   -0.5350 C   0  0  0  0  0  0  0  0  0  0  0  0
    1.5930   -1.3130   -1.1380 N   0  0  0  0  0  0  0  0  0  0  0  0
    0.9570   -2.6350   -0.9860 C   0  0  0  0  0  0  0  0  0  0  0  0
   -0.1540   -2.6010    0.0850 C   0  0  0  0  0  0  0  0  0  0  0  0
   -1.1840   -1.5550   -0.1750 N   0  0  0  0  0  0  0  0  0  0  0  0
   -2.1650   -1.5110    0.9490 C   0  0  0  0  0  0  0  0  0  0  0  0
   -3.3360   -0.5540    0.7780 C   0  0  0  0  0  0  0  0  0  0  0  0
   -4.4900   -0.8880    0.2860 N   0  0  0  0  0  0  0  0  0  0  0  0
   -5.3450    0.1950    0.2730 C   0  0  0  0  0  0  0  0  0  0  0  0
   -6.6680    0.2050   -0.1940 C   0  0  0  0  0  0  0  0  0  0  0  0
   -7.4090    1.3760   -0.1410 C   0  0  0  0  0  0  0  0  0  0  0  0
   -6.8420    2.5580    0.3800 C   0  0  0  0  0  0  0  0  0  0  0  0
   -5.5380    2.5620    0.8440 C   0  0  0  0  0  0  0  0  0  0  0  0
   -4.8030    1.3680    0.7820 C   0  0  0  0  0  0  0  0  0  0  0  0
   -3.1840    1.0970    1.2860 S   0  0  0  0  0  0  0  0  0  0  0  0
   -0.5260   -0.2320   -0.3890 C   0  0  0  0  0  0  0  0  0  0  0  0
    0.5830   -0.2910   -1.4580 C   0  0  0  0  0  0  0  0  0  0  0  0
    3.2320    0.3050   -0.0940 C   0  0  0  0  0  0  0  0  0  0  0  0
    2.4310    1.3010    0.2890 N   0  0  0  0  0  0  0  0  0  0  0  0
    3.2510    2.3250    0.6310 N   0  0  0  0  0  0  0  0  0  0  0  0
    4.5710    2.0100    0.4770 C   0  0  0  0  0  0  0  0  0  0  0  0
    5.7320    2.7650    0.7070 C   0  0  0  0  0  0  0  0  0  0  0  0
    6.9480    2.1580    0.4510 C   0  0  0  0  0  0  0  0  0  0  0  0
    6.9970    0.8260   -0.0230 C   0  0  0  0  0  0  0  0  0  0  0  0
    5.8320    0.1070   -0.2400 C   0  0  0  0  0  0  0  0  0  0  0  0
    4.5850    0.7150    0.0150 C   0  0  0  0  0  0  0  0  0  0  0  0
  1  2  2  0  0  0  0
  2  3  1  0  0  0  0
  2 19  1  0  0  0  0
  3  4  1  0  0  0  0
  3 18  1  0  0  0  0
  4  5  1  0  0  0  0
  5  6  1  0  0  0  0
  6  7  1  0  0  0  0
  6 17  1  0  0  0  0
  7  8  1  0  0  0  0
  8  9  2  0  0  0  0
  8 16  1  0  0  0  0
  9 10  1  0  0  0  0
 10 11  1  0  0  0  0
 10 15  2  0  0  0  0
 11 12  2  0  0  0  0
 12 13  1  0  0  0  0
 13 14  2  0  0  0  0
 14 15  1  0  0  0  0
 15 16  1  0  0  0  0
 17 18  1  0  0  0  0
 19 20  2  0  0  0  0
 19 27  1  0  0  0  0
 20 21  1  0  0  0  0
 21 22  1  0  0  0  0
 22 23  1  0  0  0  0
 22 27  2  0  0  0  0
 23 24  2  0  0  0  0
 24 25  1  0  0  0  0
 25 26  2  0  0  0  0
 26 27  1  0  0  0  0
M  END
>  <NScode>
NS-012729767-0000

>  <a_acc>
5

>  <a_don>
2

>  <chiral>
0

>  <opr_nrot>
5

>  <Weight>
377.47198

>  <druglike>
1

>  <lip_druglike>
1

>  <lip_violation>
0

>  <logS>
-4.1922202

$$$$
