NS-006570013-0000
  MOE2022           3D

 32 35  0  0  0  0  0  0  0  0999 V2000
    1.5230   -1.7930    0.6150 N   0  0  0  0  0  0  0  0  0  0  0  0
    2.3410   -0.7230    0.5550 C   0  0  0  0  0  0  0  0  0  0  0  0
    0.4720   -1.4230    1.3600 C   0  0  0  0  0  0  0  0  0  0  0  0
    1.8180    0.2490    1.2220 N   0  0  0  0  0  0  0  0  0  0  0  0
    0.6210   -0.1870    1.7410 N   0  0  0  0  0  0  0  0  0  0  0  0
    3.6530   -0.6820   -0.2000 C   0  0  0  0  0  0  0  0  0  0  0  0
    3.4760   -0.4780   -1.6910 C   0  0  0  0  0  0  0  0  0  0  0  0
   -5.6120    0.8570    0.3100 C   0  0  0  0  0  0  0  0  0  0  0  0
   -0.8550   -2.5020    1.7170 S   0  0  0  0  0  0  0  0  0  0  0  0
   -5.4450    0.0910    1.4540 C   0  0  0  0  0  0  0  0  0  0  0  0
   -3.2130   -2.0210    3.1810 C   0  0  0  0  0  0  0  0  0  0  0  0
   -4.9400    0.5640   -0.8590 C   0  0  0  0  0  0  0  0  0  0  0  0
    3.6980    0.7150   -2.3060 N   0  0  0  0  0  0  0  0  0  0  0  0
   -4.3850   -1.7840    2.5320 N   0  0  0  0  0  0  0  0  0  0  0  0
   -6.4120    1.9440    0.1740 O   0  0  0  0  0  0  0  0  0  0  0  0
   -5.2480    1.4380   -1.8520 O   0  0  0  0  0  0  0  0  0  0  0  0
   -4.5640   -0.9910    1.3810 C   0  0  0  0  0  0  0  0  0  0  0  0
   -6.2020    2.3550   -1.2190 C   0  0  0  0  0  0  0  0  0  0  0  0
    3.1460   -1.3850   -2.4240 O   0  0  0  0  0  0  0  0  0  0  0  0
   -3.2930   -2.7510    4.1450 O   0  0  0  0  0  0  0  0  0  0  0  0
   -1.9040   -1.3990    2.7350 C   0  0  0  0  0  0  0  0  0  0  0  0
   -4.0680   -0.5150   -0.9420 C   0  0  0  0  0  0  0  0  0  0  0  0
    1.7300   -3.1260    0.0400 C   0  0  0  0  0  0  0  0  0  0  0  0
    4.0750    1.9180   -1.6820 C   0  0  0  0  0  0  0  0  0  0  0  0
   -3.8820   -1.3060    0.1930 C   0  0  0  0  0  0  0  0  0  0  0  0
    4.8430    4.2590   -0.4720 C   0  0  0  0  0  0  0  0  0  0  0  0
    5.2240    5.4050    0.1260 F   0  0  0  0  0  0  0  0  0  0  0  0
    5.3170    2.4740   -1.9990 C   0  0  0  0  0  0  0  0  0  0  0  0
    3.2070    2.5350   -0.7760 C   0  0  0  0  0  0  0  0  0  0  0  0
    5.7070    3.6600   -1.3830 C   0  0  0  0  0  0  0  0  0  0  0  0
    3.6000    3.7180   -0.1570 C   0  0  0  0  0  0  0  0  0  0  0  0
    2.4240   -4.1110    0.9930 C   0  0  0  0  0  0  0  0  0  0  0  0
  1  2  1  0  0  0  0
  1  3  1  0  0  0  0
  1 23  1  0  0  0  0
  2  4  2  0  0  0  0
  2  6  1  0  0  0  0
  3  5  2  0  0  0  0
  3  9  1  0  0  0  0
  4  5  1  0  0  0  0
  6  7  1  0  0  0  0
  7 13  1  0  0  0  0
  7 19  2  0  0  0  0
  8 10  2  0  0  0  0
  8 12  1  0  0  0  0
  8 15  1  0  0  0  0
  9 21  1  0  0  0  0
 10 17  1  0  0  0  0
 11 14  1  0  0  0  0
 11 20  2  0  0  0  0
 11 21  1  0  0  0  0
 12 16  1  0  0  0  0
 12 22  2  0  0  0  0
 13 24  1  0  0  0  0
 14 17  1  0  0  0  0
 15 18  1  0  0  0  0
 16 18  1  0  0  0  0
 17 25  2  0  0  0  0
 22 25  1  0  0  0  0
 23 32  1  0  0  0  0
 24 28  2  0  0  0  0
 24 29  1  0  0  0  0
 26 27  1  0  0  0  0
 26 30  2  0  0  0  0
 26 31  1  0  0  0  0
 28 30  1  0  0  0  0
 29 31  2  0  0  0  0
M  END
>  <NScode>
NS-006570013-0000

>  <a_acc>
6

>  <a_don>
2

>  <chiral>
0

>  <opr_nrot>
8

>  <Weight>
457.48599

>  <druglike>
1

>  <lip_druglike>
1

>  <lip_violation>
0

>  <logS>
-5.93753

$$$$
