NS-023427242-0000
  MOE2022           3D

 21 23  0  0  0  0  0  0  0  0999 V2000
   -2.9530   -2.7290    1.7060 N   0  0  0  0  0  0  0  0  0  0  0  0
   -3.0760   -1.4640    1.1510 C   0  0  0  0  0  0  0  0  0  0  0  0
   -4.3330   -1.0080    0.7590 C   0  0  0  0  0  0  0  0  0  0  0  0
   -4.4580    0.2650    0.2160 C   0  0  0  0  0  0  0  0  0  0  0  0
   -3.3330    1.0700    0.0570 C   0  0  0  0  0  0  0  0  0  0  0  0
   -2.0590    0.6120    0.4330 C   0  0  0  0  0  0  0  0  0  0  0  0
   -1.9430   -0.6700    0.9930 C   0  0  0  0  0  0  0  0  0  0  0  0
   -0.8910    1.4790    0.2330 C   0  0  0  0  0  0  0  0  0  0  0  0
   -0.9770    2.6890    0.0830 O   0  0  0  0  0  0  0  0  0  0  0  0
    0.3560    0.9000    0.1900 N   0  0  0  0  0  0  0  0  0  0  0  0
    1.6530    1.4930    0.0420 C   0  0  0  0  0  0  0  0  0  0  0  0
    1.9250    2.8520    0.0220 C   0  0  0  0  0  0  0  0  0  0  0  0
    3.1890    3.2710   -0.1170 N   0  0  0  0  0  0  0  0  0  0  0  0
    4.1670    2.3740   -0.2340 C   0  0  0  0  0  0  0  0  0  0  0  0
    3.9770    1.0550   -0.2200 N   0  0  0  0  0  0  0  0  0  0  0  0
    2.7360    0.6070   -0.0800 C   0  0  0  0  0  0  0  0  0  0  0  0
    2.5300   -0.7750   -0.0790 N   0  0  0  0  0  0  0  0  0  0  0  0
    3.3800   -1.5700    0.8270 C   0  0  0  0  0  0  0  0  0  0  0  0
    3.5930   -2.9270    0.1670 C   0  0  0  0  0  0  0  0  0  0  0  0
    3.5250   -2.6200   -1.3170 C   0  0  0  0  0  0  0  0  0  0  0  0
    2.6150   -1.3950   -1.4150 C   0  0  0  0  0  0  0  0  0  0  0  0
  1  2  1  0  0  0  0
  2  3  1  0  0  0  0
  2  7  2  0  0  0  0
  3  4  2  0  0  0  0
  4  5  1  0  0  0  0
  5  6  2  0  0  0  0
  6  7  1  0  0  0  0
  6  8  1  0  0  0  0
  8  9  2  0  0  0  0
  8 10  1  0  0  0  0
 10 11  1  0  0  0  0
 11 12  1  0  0  0  0
 11 16  2  0  0  0  0
 12 13  2  0  0  0  0
 13 14  1  0  0  0  0
 14 15  2  0  0  0  0
 15 16  1  0  0  0  0
 16 17  1  0  0  0  0
 17 18  1  0  0  0  0
 17 21  1  0  0  0  0
 18 19  1  0  0  0  0
 19 20  1  0  0  0  0
 20 21  1  0  0  0  0
M  END
>  <NScode>
NS-023427242-0000

>  <a_acc>
3

>  <a_don>
2

>  <chiral>
0

>  <opr_nrot>
4

>  <Weight>
283.33499

>  <druglike>
1

>  <lip_druglike>
1

>  <lip_violation>
0

>  <logS>
-2.76966

$$$$
