NS-017467791-0000
  MOE2022           3D

 30 34  0  0  1  0  0  0  0  0999 V2000
    0.4600   -2.1480    0.1660 N   0  0  0  0  0  0  0  0  0  0  0  0
   -0.5650   -1.2930    0.4080 C   0  0  0  0  0  0  0  0  0  0  0  0
    0.1320   -3.2950    0.8250 C   0  0  0  0  0  0  0  0  0  0  0  0
   -2.4320    3.2020    1.5400 N   0  0  0  0  0  0  0  0  0  0  0  0
   -1.0030   -3.1500    1.4360 N   0  0  0  0  0  0  0  0  0  0  0  0
   -2.2740    4.4710    1.0800 C   0  0  0  0  0  0  0  0  0  0  0  0
   -1.4560   -1.8640    1.1630 N   0  0  0  0  0  0  0  0  0  0  0  0
   -2.1740    2.4840    0.5230 C   0  0  0  0  0  0  0  0  0  0  0  0
   -1.9420    4.4880   -0.1670 N   0  0  0  0  0  0  0  0  0  0  0  0
   -1.8770    3.2250   -0.5260 O   0  0  0  0  0  0  0  0  0  0  0  0
   -0.6000    0.3360   -0.2370 S   0  0  0  0  0  0  0  0  0  0  0  0
    0.9320   -4.4740    0.8540 N   0  0  0  0  0  0  0  0  0  0  0  0
   -2.4570    5.6730    1.8870 C   0  0  0  0  0  0  0  0  0  0  0  0
    1.6490   -1.8590   -0.5790 C   0  0  0  0  0  0  0  0  0  0  0  0
   -2.1910    0.9700    0.4070 C   0  0  3  0  0  0  0  0  0  0  0  0
   -2.8360    5.6130    3.2100 O   0  0  0  0  0  0  0  0  0  0  0  0
   -2.3090    6.9870    1.5550 C   0  0  0  0  0  0  0  0  0  0  0  0
   -2.9180    6.8810    3.6780 C   0  0  0  0  0  0  0  0  0  0  0  0
   -2.6010    7.7470    2.6900 C   0  0  0  0  0  0  0  0  0  0  0  0
    2.8740   -1.8170    0.0880 C   0  0  0  0  0  0  0  0  0  0  0  0
    1.5650   -1.6390   -1.9540 C   0  0  0  0  0  0  0  0  0  0  0  0
    2.7290   -1.3800   -2.6690 C   0  0  0  0  0  0  0  0  0  0  0  0
    4.0300   -1.5580   -0.6400 C   0  0  0  0  0  0  0  0  0  0  0  0
    3.9640   -1.3430   -2.0180 C   0  0  0  0  0  0  0  0  0  0  0  0
    0.3620   -5.6600    1.5020 C   0  0  0  0  0  0  0  0  0  0  0  0
    1.7060   -4.9100   -0.3240 C   0  0  0  0  0  0  0  0  0  0  0  0
   -3.3680    0.4810   -0.4520 C   0  0  0  0  0  0  0  0  0  0  0  0
    5.2300   -1.0570   -2.7940 C   0  0  0  0  0  0  0  0  0  0  0  0
    1.1690   -6.8550    1.0070 C   0  0  0  0  0  0  0  0  0  0  0  0
    1.6380   -6.4360   -0.3780 C   0  0  0  0  0  0  0  0  0  0  0  0
  1  2  1  0  0  0  0
  1  3  1  0  0  0  0
  1 14  1  0  0  0  0
  2  7  2  0  0  0  0
  2 11  1  0  0  0  0
  3  5  2  0  0  0  0
  3 12  1  0  0  0  0
  4  6  1  0  0  0  0
  4  8  2  0  0  0  0
  5  7  1  0  0  0  0
  6  9  2  0  0  0  0
  6 13  1  0  0  0  0
  8 10  1  0  0  0  0
  8 15  1  0  0  0  0
  9 10  1  0  0  0  0
 11 15  1  0  0  0  0
 12 25  1  0  0  0  0
 12 26  1  0  0  0  0
 13 16  1  0  0  0  0
 13 17  2  0  0  0  0
 14 20  1  0  0  0  0
 14 21  2  0  0  0  0
 15 27  1  0  0  0  0
 16 18  1  0  0  0  0
 17 19  1  0  0  0  0
 18 19  2  0  0  0  0
 20 23  2  0  0  0  0
 21 22  1  0  0  0  0
 22 24  2  0  0  0  0
 23 24  1  0  0  0  0
 24 28  1  0  0  0  0
 25 29  1  0  0  0  0
 26 30  1  0  0  0  0
 29 30  1  0  0  0  0
M  END
>  <NScode>
NS-017467791-0000

>  <a_acc>
4

>  <a_don>
0

>  <chiral>
1

>  <opr_nrot>
7

>  <Weight>
422.513

>  <druglike>
1

>  <lip_druglike>
1

>  <lip_violation>
0

>  <logS>
-8.3412504

$$$$
