NS-025074672-0000
  MOE2022           3D

 27 30  0  0  0  0  0  0  0  0999 V2000
   -1.9660    1.5000    0.6400 C   0  0  0  0  0  0  0  0  0  0  0  0
   -1.3420    0.9580   -0.5780 N   0  0  0  0  0  0  0  0  0  0  0  0
   -0.8570   -0.4070   -0.4050 C   0  0  0  0  0  0  0  0  0  0  0  0
   -1.9910   -1.3530   -0.0960 C   0  0  0  0  0  0  0  0  0  0  0  0
   -2.1290   -2.3000    0.8710 C   0  0  0  0  0  0  0  0  0  0  0  0
   -3.3950   -2.9100    0.7180 C   0  0  0  0  0  0  0  0  0  0  0  0
   -4.0760   -3.9250    1.4110 C   0  0  0  0  0  0  0  0  0  0  0  0
   -5.3450   -4.2970    0.9930 C   0  0  0  0  0  0  0  0  0  0  0  0
   -5.9550   -3.6680   -0.1180 C   0  0  0  0  0  0  0  0  0  0  0  0
   -5.2950   -2.6660   -0.8090 C   0  0  0  0  0  0  0  0  0  0  0  0
   -4.0140   -2.3060   -0.3690 C   0  0  0  0  0  0  0  0  0  0  0  0
   -3.1410   -1.3550   -0.8590 N   0  0  0  0  0  0  0  0  0  0  0  0
   -0.4560    1.9710   -1.5390 S   0  0  0  0  0  0  0  0  0  0  0  0
   -0.0760    1.2720   -2.7170 O   0  0  0  0  0  0  0  0  0  0  0  0
   -1.1720    3.1860   -1.7120 O   0  0  0  0  0  0  0  0  0  0  0  0
    1.0340    2.3200   -0.5770 C   0  0  0  0  0  0  0  0  0  0  0  0
    1.1120    3.4720    0.2250 C   0  0  0  0  0  0  0  0  0  0  0  0
    2.2580    3.7570    0.9580 C   0  0  0  0  0  0  0  0  0  0  0  0
    3.3420    2.8840    0.8890 C   0  0  0  0  0  0  0  0  0  0  0  0
    4.5070    3.1500    1.6160 N   0  0  0  0  0  0  0  0  0  0  0  0
    5.6060    2.3380    1.5820 C   0  0  0  0  0  0  0  0  0  0  0  0
    6.6010    2.6120    2.2200 O   0  0  0  0  0  0  0  0  0  0  0  0
    5.5540    1.2130    0.8160 N   0  0  0  0  0  0  0  0  0  0  0  0
    4.4600    0.8600    0.0840 C   0  0  0  0  0  0  0  0  0  0  0  0
    4.5490   -0.1910   -0.5280 O   0  0  0  0  0  0  0  0  0  0  0  0
    3.2990    1.7310    0.0990 C   0  0  0  0  0  0  0  0  0  0  0  0
    2.1380    1.4650   -0.6410 C   0  0  0  0  0  0  0  0  0  0  0  0
  1  2  1  0  0  0  0
  2  3  1  0  0  0  0
  2 13  1  0  0  0  0
  3  4  1  0  0  0  0
  4  5  2  0  0  0  0
  4 12  1  0  0  0  0
  5  6  1  0  0  0  0
  6  7  1  0  0  0  0
  6 11  2  0  0  0  0
  7  8  2  0  0  0  0
  8  9  1  0  0  0  0
  9 10  2  0  0  0  0
 10 11  1  0  0  0  0
 11 12  1  0  0  0  0
 13 14  2  0  0  0  0
 13 15  2  0  0  0  0
 13 16  1  0  0  0  0
 16 17  1  0  0  0  0
 16 27  2  0  0  0  0
 17 18  2  0  0  0  0
 18 19  1  0  0  0  0
 19 20  1  0  0  0  0
 19 26  2  0  0  0  0
 20 21  1  0  0  0  0
 21 22  2  0  0  0  0
 21 23  1  0  0  0  0
 23 24  1  0  0  0  0
 24 25  2  0  0  0  0
 24 26  1  0  0  0  0
 26 27  1  0  0  0  0
M  END
>  <NScode>
NS-025074672-0000

>  <a_acc>
4

>  <a_don>
3

>  <chiral>
0

>  <opr_nrot>
3

>  <Weight>
384.41599

>  <druglike>
1

>  <lip_druglike>
1

>  <lip_violation>
0

>  <logS>
-4.06218

$$$$
