NS-025023315-0000
  MOE2022           3D

 23 25  0  0  1  0  0  0  0  0999 V2000
   -2.5460   -4.1740   -2.2560 F   0  0  0  0  0  0  0  0  0  0  0  0
   -3.0960   -3.2220   -1.4820 C   0  0  0  0  0  0  0  0  0  0  0  0
   -2.4700   -3.2970   -0.2970 F   0  0  0  0  0  0  0  0  0  0  0  0
   -4.3700   -3.6000   -1.2740 F   0  0  0  0  0  0  0  0  0  0  0  0
   -3.0000   -1.8410   -2.1600 C   0  0  0  0  0  0  0  0  0  0  0  0
   -3.6440   -0.7350   -1.4220 O   0  0  0  0  0  0  0  0  0  0  0  0
   -3.0170   -0.0580   -0.4150 C   0  0  0  0  0  0  0  0  0  0  0  0
   -3.7390    0.8910    0.3030 C   0  0  0  0  0  0  0  0  0  0  0  0
   -3.1080    1.5750    1.3290 C   0  0  0  0  0  0  0  0  0  0  0  0
   -1.7770    1.2720    1.5890 C   0  0  0  0  0  0  0  0  0  0  0  0
   -1.1200    0.3050    0.8270 C   0  0  0  0  0  0  0  0  0  0  0  0
    0.3320   -0.0310    1.1020 C   0  0  0  0  0  0  0  0  0  0  0  0
    1.2660    0.9710    0.5770 N   0  0  0  0  0  0  0  0  0  0  0  0
    1.8080    1.9490    1.3400 C   0  0  0  0  0  0  0  0  0  0  0  0
    1.5690    1.9660    2.5300 O   0  0  0  0  0  0  0  0  0  0  0  0
    2.6770    3.0050    0.6710 C   0  0  3  0  0  0  0  0  0  0  0  0
    2.6090    3.2790   -0.8020 C   0  0  0  0  0  0  0  0  0  0  0  0
    3.8620    2.6720   -0.2210 C   0  0  0  0  0  0  0  0  0  0  0  0
    5.1330    3.5220   -0.1510 C   0  0  0  0  0  0  0  0  0  0  0  0
    6.2020    2.6890   -0.8630 C   0  0  0  0  0  0  0  0  0  0  0  0
    5.7760    1.2280   -0.6910 C   0  0  0  0  0  0  0  0  0  0  0  0
    4.2440    1.2320   -0.5950 C   0  0  0  0  0  0  0  0  0  0  0  0
   -1.7380   -0.3400   -0.1670 N   0  0  0  0  0  0  0  0  0  0  0  0
  1  2  1  0  0  0  0
  2  3  1  0  0  0  0
  2  4  1  0  0  0  0
  2  5  1  0  0  0  0
  5  6  1  0  0  0  0
  6  7  1  0  0  0  0
  7  8  1  0  0  0  0
  7 23  2  0  0  0  0
  8  9  2  0  0  0  0
  9 10  1  0  0  0  0
 10 11  2  0  0  0  0
 11 12  1  0  0  0  0
 11 23  1  0  0  0  0
 12 13  1  0  0  0  0
 13 14  1  0  0  0  0
 14 15  2  0  0  0  0
 14 16  1  0  0  0  0
 16 17  1  0  0  0  0
 16 18  1  0  0  0  0
 17 18  1  0  0  0  0
 18 19  1  0  0  0  0
 18 22  1  0  0  0  0
 19 20  1  0  0  0  0
 20 21  1  0  0  0  0
 21 22  1  0  0  0  0
M  END
>  <NScode>
NS-025023315-0000

>  <a_acc>
2

>  <a_don>
1

>  <chiral>
1

>  <opr_nrot>
6

>  <Weight>
328.33398

>  <druglike>
1

>  <lip_druglike>
1

>  <lip_violation>
0

>  <logS>
-4.1381202

$$$$
