NS-019822683-0000
  MOE2022           3D

 21 22  0  0  0  0  0  0  0  0999 V2000
    0.9970   -3.4680   -0.2720 C   0  0  0  0  0  0  0  0  0  0  0  0
    1.5300   -4.7920   -0.2670 N   0  3  0  0  0  0  0  0  0  0  0  0
    1.8620   -2.3940   -0.4860 C   0  0  0  0  0  0  0  0  0  0  0  0
    1.0460    5.6300    1.5810 N   0  0  0  0  0  0  0  0  0  0  0  0
   -0.3740   -3.2850   -0.0620 C   0  0  0  0  0  0  0  0  0  0  0  0
    0.9680    5.9520    0.2680 N   0  0  0  0  0  0  0  0  0  0  0  0
   -0.9110   -1.9960   -0.0670 C   0  0  0  0  0  0  0  0  0  0  0  0
    1.3190   -1.1200   -0.4880 C   0  0  0  0  0  0  0  0  0  0  0  0
   -0.0840    4.0800    0.4540 C   0  0  0  0  0  0  0  0  0  0  0  0
    0.2840    5.0260   -0.4380 C   0  0  0  0  0  0  0  0  0  0  0  0
   -0.0670   -0.8970   -0.2770 C   0  0  0  0  0  0  0  0  0  0  0  0
    0.4100    4.4960    1.6860 C   0  0  0  0  0  0  0  0  0  0  0  0
    2.0770   -5.2220    0.7360 O   0  5  0  0  0  0  0  0  0  0  0  0
    1.5010   -5.4690   -1.2830 O   0  0  0  0  0  0  0  0  0  0  0  0
   -0.6930    0.3670   -0.2690 N   0  0  0  0  0  0  0  0  0  0  0  0
    2.1780   -0.1090   -0.7090 F   0  0  0  0  0  0  0  0  0  0  0  0
   -1.1660   -4.3940    0.1500 O   0  0  0  0  0  0  0  0  0  0  0  0
    0.0530    1.6080   -0.0150 C   0  0  0  0  0  0  0  0  0  0  0  0
   -0.8630    2.8190    0.1570 C   0  0  0  0  0  0  0  0  0  0  0  0
    1.5450    7.1690   -0.2560 C   0  0  0  0  0  0  0  0  0  0  0  0
   -2.5990   -4.3870    0.3450 C   0  0  0  0  0  0  0  0  0  0  0  0
  1  2  1  0  0  0  0
  1  3  1  0  0  0  0
  1  5  2  0  0  0  0
  2 13  1  0  0  0  0
  2 14  2  0  0  0  0
  3  8  2  0  0  0  0
  4  6  1  0  0  0  0
  4 12  2  0  0  0  0
  5  7  1  0  0  0  0
  5 17  1  0  0  0  0
  6 10  1  0  0  0  0
  6 20  1  0  0  0  0
  7 11  2  0  0  0  0
  8 11  1  0  0  0  0
  8 16  1  0  0  0  0
  9 10  2  0  0  0  0
  9 12  1  0  0  0  0
  9 19  1  0  0  0  0
 11 15  1  0  0  0  0
 15 18  1  0  0  0  0
 17 21  1  0  0  0  0
 18 19  1  0  0  0  0
M  CHG  1   2   1
M  CHG  1  13  -1
M  END
>  <NScode>
NS-019822683-0000

>  <a_acc>
1

>  <a_don>
1

>  <chiral>
0

>  <opr_nrot>
6

>  <Weight>
294.28598

>  <druglike>
1

>  <lip_druglike>
1

>  <lip_violation>
0

>  <logS>
-2.4763501

$$$$
