NS-018439494-0000
  MOE2022           3D

 24 25  0  0  0  0  0  0  0  0999 V2000
   -2.0980   -0.6210    0.0740 N   0  0  0  0  0  0  0  0  0  0  0  0
   -3.4250   -0.1510   -0.2310 C   0  0  0  0  0  0  0  0  0  0  0  0
    0.9620    0.1590    0.4440 N   0  0  0  0  0  0  0  0  0  0  0  0
   -3.7040    1.2330   -0.2690 C   0  0  0  0  0  0  0  0  0  0  0  0
    2.2240    0.0280    0.9440 C   0  0  0  0  0  0  0  0  0  0  0  0
    0.3830   -0.4660   -0.6330 C   0  0  0  0  0  0  0  0  0  0  0  0
   -1.0770   -0.1260   -0.9260 C   0  0  0  0  0  0  0  0  0  0  0  0
   -2.8030    2.1710    0.1880 O   0  0  0  0  0  0  0  0  0  0  0  0
   -2.3230    1.9600    1.5320 C   0  0  0  0  0  0  0  0  0  0  0  0
    2.5380    0.7040    1.9070 O   0  0  0  0  0  0  0  0  0  0  0  0
   -4.4660   -1.0550   -0.5070 C   0  0  0  0  0  0  0  0  0  0  0  0
    0.9980   -1.2840   -1.2920 O   0  0  0  0  0  0  0  0  0  0  0  0
    3.0710   -0.8440    0.3590 N   0  0  0  0  0  0  0  0  0  0  0  0
    5.2280   -0.0440   -0.4260 C   0  0  0  0  0  0  0  0  0  0  0  0
    5.9810   -0.5960   -1.3900 C   0  0  0  0  0  0  0  0  0  0  0  0
   -1.9050   -2.0790    0.2990 C   0  0  0  0  0  0  0  0  0  0  0  0
   -2.7760    2.9310    2.3420 F   0  0  0  0  0  0  0  0  0  0  0  0
   -0.9730    2.0330    1.5520 F   0  0  0  0  0  0  0  0  0  0  0  0
   -4.9320    1.7030   -0.7130 C   0  0  0  0  0  0  0  0  0  0  0  0
    4.4940   -0.8480    0.6190 C   0  0  0  0  0  0  0  0  0  0  0  0
   -3.1840   -2.8130    0.6910 C   0  0  0  0  0  0  0  0  0  0  0  0
   -5.9310    0.7980   -1.0580 C   0  0  0  0  0  0  0  0  0  0  0  0
   -5.7020   -0.5700   -0.9370 C   0  0  0  0  0  0  0  0  0  0  0  0
   -4.2690   -2.5440   -0.3440 C   0  0  0  0  0  0  0  0  0  0  0  0
  1  2  1  0  0  0  0
  1  7  1  0  0  0  0
  1 16  1  0  0  0  0
  2  4  2  0  0  0  0
  2 11  1  0  0  0  0
  3  5  1  0  0  0  0
  3  6  1  0  0  0  0
  4  8  1  0  0  0  0
  4 19  1  0  0  0  0
  5 10  2  0  0  0  0
  5 13  1  0  0  0  0
  6  7  1  0  0  0  0
  6 12  2  0  0  0  0
  8  9  1  0  0  0  0
  9 17  1  0  0  0  0
  9 18  1  0  0  0  0
 11 23  2  0  0  0  0
 11 24  1  0  0  0  0
 13 20  1  0  0  0  0
 14 15  2  0  0  0  0
 14 20  1  0  0  0  0
 16 21  1  0  0  0  0
 19 22  2  0  0  0  0
 21 24  1  0  0  0  0
 22 23  1  0  0  0  0
M  END
>  <NScode>
NS-018439494-0000

>  <a_acc>
3

>  <a_don>
2

>  <chiral>
0

>  <opr_nrot>
7

>  <Weight>
339.34198

>  <druglike>
1

>  <lip_druglike>
1

>  <lip_violation>
0

>  <logS>
-2.7295101

$$$$
