NS-017316361-0000
  MOE2022           3D

 23 24  0  0  0  0  0  0  0  0999 V2000
   -3.8540   -0.4340    0.6410 C   0  0  0  0  0  0  0  0  0  0  0  0
   -3.4520   -1.4840    1.4890 N   0  0  0  0  0  0  0  0  0  0  0  0
    2.6490   -0.9360   -0.1360 C   0  0  0  0  0  0  0  0  0  0  0  0
   -3.4530    0.8860    0.9030 C   0  0  0  0  0  0  0  0  0  0  0  0
   -2.5230   -2.4300    1.2000 C   0  0  0  0  0  0  0  0  0  0  0  0
    2.7160   -2.0000   -0.7400 O   0  0  0  0  0  0  0  0  0  0  0  0
    3.6690    0.1140   -0.2460 C   0  0  0  0  0  0  0  0  0  0  0  0
   -2.2710   -3.2090    2.0900 O   0  0  0  0  0  0  0  0  0  0  0  0
   -3.9080    1.9000    0.0490 C   0  0  0  0  0  0  0  0  0  0  0  0
    1.5710   -0.7410    0.6880 N   0  0  0  0  0  0  0  0  0  0  0  0
   -4.6740   -0.7490   -0.4410 C   0  0  0  0  0  0  0  0  0  0  0  0
   -5.1020    0.2650   -1.2860 C   0  0  0  0  0  0  0  0  0  0  0  0
   -2.5620    1.2120    2.0970 C   0  0  0  0  0  0  0  0  0  0  0  0
   -1.7900   -2.4500   -0.1260 C   0  0  0  0  0  0  0  0  0  0  0  0
   -4.7210    1.5810   -1.0410 C   0  0  0  0  0  0  0  0  0  0  0  0
   -3.5400    3.3550    0.2710 C   0  0  0  0  0  0  0  0  0  0  0  0
    4.9730   -0.2210   -0.6370 C   0  0  0  0  0  0  0  0  0  0  0  0
    3.3770    1.4610    0.0280 C   0  0  0  0  0  0  0  0  0  0  0  0
    0.4750   -1.6980    0.8170 C   0  0  0  0  0  0  0  0  0  0  0  0
   -0.6210   -1.4500   -0.2220 C   0  0  0  0  0  0  0  0  0  0  0  0
    4.3650    2.4350   -0.0730 C   0  0  0  0  0  0  0  0  0  0  0  0
    5.9590    0.7540   -0.7380 C   0  0  0  0  0  0  0  0  0  0  0  0
    5.6560    2.0820   -0.4530 C   0  0  0  0  0  0  0  0  0  0  0  0
  1  2  1  0  0  0  0
  1  4  2  0  0  0  0
  1 11  1  0  0  0  0
  2  5  1  0  0  0  0
  3  6  2  0  0  0  0
  3  7  1  0  0  0  0
  3 10  1  0  0  0  0
  4  9  1  0  0  0  0
  4 13  1  0  0  0  0
  5  8  2  0  0  0  0
  5 14  1  0  0  0  0
  7 17  1  0  0  0  0
  7 18  2  0  0  0  0
  9 15  2  0  0  0  0
  9 16  1  0  0  0  0
 10 19  1  0  0  0  0
 11 12  2  0  0  0  0
 12 15  1  0  0  0  0
 14 20  1  0  0  0  0
 17 22  2  0  0  0  0
 18 21  1  0  0  0  0
 19 20  1  0  0  0  0
 21 23  2  0  0  0  0
 22 23  1  0  0  0  0
M  END
>  <NScode>
NS-017316361-0000

>  <a_acc>
2

>  <a_don>
2

>  <chiral>
0

>  <opr_nrot>
6

>  <Weight>
310.397

>  <druglike>
1

>  <lip_druglike>
1

>  <lip_violation>
0

>  <logS>
-4.2455201

$$$$
