NS-050076132-0000
  MOE2022           3D

 19 22  0  0  1  0  0  0  0  0999 V2000
   -3.8950   -0.5020    0.9920 C   0  0  0  0  0  0  0  0  0  0  0  0
   -2.4750   -0.3090    0.4500 C   0  0  0  0  0  0  0  0  0  0  0  0
   -2.0900    1.1400    0.2260 C   0  0  0  0  0  0  0  0  0  0  0  0
   -2.8230    2.2380    0.5680 C   0  0  0  0  0  0  0  0  0  0  0  0
   -2.1200    3.3640    0.1860 N   0  0  0  0  0  0  0  0  0  0  0  0
   -0.9440    2.9820   -0.3950 C   0  0  0  0  0  0  0  0  0  0  0  0
    0.0220    3.7740   -0.9070 N   0  0  0  0  0  0  0  0  0  0  0  0
    1.0640    3.1440   -1.4170 C   0  0  0  0  0  0  0  0  0  0  0  0
    1.2200    1.7930   -1.4500 N   0  0  0  0  0  0  0  0  0  0  0  0
    0.2670    1.0310   -0.9430 C   0  0  0  0  0  0  0  0  0  0  0  0
    0.4360   -0.3330   -0.9720 N   0  0  0  0  0  0  0  0  0  0  0  0
    1.7620   -0.9200   -1.1610 C   0  0  3  0  0  0  0  0  0  0  0  0
    1.6670   -2.5990   -1.4200 C   0  0  0  0  0  0  0  0  0  0  0  0
    2.6510   -3.3970   -0.1730 C   0  0  3  0  0  0  0  0  0  0  0  0
    2.7780   -2.0360    0.0180 C   0  0  0  0  0  0  0  0  0  0  0  0
    2.8320   -0.6760    0.2490 C   0  0  3  0  0  0  0  0  0  0  0  0
    3.6710   -1.5750    1.3270 C   0  0  0  0  0  0  0  0  0  0  0  0
    3.6020   -2.9790    1.0860 C   0  0  0  0  0  0  0  0  0  0  0  0
   -0.8930    1.6050   -0.3820 C   0  0  0  0  0  0  0  0  0  0  0  0
  1  2  1  0  0  0  0
  2  3  1  0  0  0  0
  3  4  2  0  0  0  0
  3 19  1  0  0  0  0
  4  5  1  0  0  0  0
  5  6  1  0  0  0  0
  6  7  1  0  0  0  0
  6 19  2  0  0  0  0
  7  8  2  0  0  0  0
  8  9  1  0  0  0  0
  9 10  2  0  0  0  0
 10 11  1  0  0  0  0
 10 19  1  0  0  0  0
 11 12  1  0  0  0  0
 12 13  1  0  0  0  0
 12 16  1  0  0  0  0
 13 14  1  0  0  0  0
 14 15  1  0  0  0  0
 14 18  1  0  0  0  0
 15 16  1  0  0  0  0
 16 17  1  0  0  0  0
 17 18  2  0  0  0  0
M  END
>  <NScode>
NS-050076132-0000

>  <a_acc>
3

>  <a_don>
3

>  <chiral>
3

>  <opr_nrot>
4

>  <Weight>
254.33699

>  <druglike>
1

>  <lip_druglike>
1

>  <lip_violation>
0

>  <logS>
-3.31811

$$$$
