NS-019199792-0000
  MOE2022           3D

 22 24  0  0  0  0  0  0  0  0999 V2000
   -8.2680    4.1850    0.0290 N   0  0  0  0  0  0  0  0  0  0  0  0
   -5.9240    3.8580   -0.1610 N   0  0  0  0  0  0  0  0  0  0  0  0
   -6.9680    4.6910   -0.3160 C   0  0  0  0  0  0  0  0  0  0  0  0
   -4.6970    4.2770   -0.4670 N   0  0  0  0  0  0  0  0  0  0  0  0
   -9.8060    2.9630    1.0370 N   0  0  0  0  0  0  0  0  0  0  0  0
   -8.5300    3.1930    0.9290 C   0  0  0  0  0  0  0  0  0  0  0  0
   -1.3190    5.0450    0.8190 C   0  0  0  0  0  0  0  0  0  0  0  0
   -4.4730    5.5290   -0.9330 C   0  0  0  0  0  0  0  0  0  0  0  0
   -9.4700    4.5860   -0.4550 C   0  0  0  0  0  0  0  0  0  0  0  0
   -0.3190    5.8920    1.0540 N   0  0  0  0  0  0  0  0  0  0  0  0
  -10.4000    3.8310    0.1720 C   0  0  0  0  0  0  0  0  0  0  0  0
   -2.8500    6.0210   -1.3410 S   0  0  0  0  0  0  0  0  0  0  0  0
   -6.8150    5.9930   -0.7870 C   0  0  0  0  0  0  0  0  0  0  0  0
   -1.8630    4.5510    1.7940 O   0  0  0  0  0  0  0  0  0  0  0  0
   -1.7680    4.7350   -0.5970 C   0  0  0  0  0  0  0  0  0  0  0  0
   -5.5350    6.4180   -1.1040 C   0  0  0  0  0  0  0  0  0  0  0  0
    0.4400    6.6730    0.0940 C   0  0  0  0  0  0  0  0  0  0  0  0
    1.8040    6.0100   -0.1300 C   0  0  0  0  0  0  0  0  0  0  0  0
    0.6020    8.0990    0.6310 C   0  0  0  0  0  0  0  0  0  0  0  0
    2.6800    6.8510   -1.0720 C   0  0  0  0  0  0  0  0  0  0  0  0
    1.4740    8.9470   -0.3090 C   0  0  0  0  0  0  0  0  0  0  0  0
    2.8400    8.2820   -0.5380 C   0  0  0  0  0  0  0  0  0  0  0  0
  1  3  1  0  0  0  0
  1  6  1  0  0  0  0
  1  9  1  0  0  0  0
  2  3  1  0  0  0  0
  2  4  2  0  0  0  0
  3 13  2  0  0  0  0
  4  8  1  0  0  0  0
  5  6  2  0  0  0  0
  5 11  1  0  0  0  0
  7 10  1  0  0  0  0
  7 14  2  0  0  0  0
  7 15  1  0  0  0  0
  8 12  1  0  0  0  0
  8 16  2  0  0  0  0
  9 11  2  0  0  0  0
 10 17  1  0  0  0  0
 12 15  1  0  0  0  0
 13 16  1  0  0  0  0
 17 18  1  0  0  0  0
 17 19  1  0  0  0  0
 18 20  1  0  0  0  0
 19 21  1  0  0  0  0
 20 22  1  0  0  0  0
 21 22  1  0  0  0  0
M  END
>  <NScode>
NS-019199792-0000

>  <a_acc>
4

>  <a_don>
1

>  <chiral>
0

>  <opr_nrot>
7

>  <Weight>
317.41699

>  <druglike>
1

>  <lip_druglike>
1

>  <lip_violation>
0

>  <logS>
-3.72928

$$$$
