NS-025055442-0000
  MOE2022           3D

 19 20  0  0  1  0  0  0  0  0999 V2000
   -2.1930   -1.0290    0.1250 O   0  5  0  0  0  0  0  0  0  0  0  0
   -1.2740   -0.5360    0.8130 C   0  0  0  0  0  0  0  0  0  0  0  0
   -1.0700   -0.8030    2.0210 O   0  0  0  0  0  0  0  0  0  0  0  0
   -0.2310    0.3650    0.1230 C   0  0  3  0  0  0  0  0  0  0  0  0
    1.1560    0.0770    0.5920 N   0  0  0  0  0  0  0  0  0  0  0  0
    1.9960   -1.1700   -0.0550 S   0  0  0  0  0  0  0  0  0  0  0  0
    3.2420   -1.2560    0.6260 O   0  0  0  0  0  0  0  0  0  0  0  0
    2.0610   -1.0130   -1.4660 O   0  0  0  0  0  0  0  0  0  0  0  0
    1.0680   -2.6660    0.3200 C   0  0  3  0  0  0  0  0  0  0  0  0
    1.8840   -3.9580    0.4670 C   0  0  0  0  0  0  0  0  0  0  0  0
    1.0900   -5.0420   -0.2530 C   0  0  0  0  0  0  0  0  0  0  0  0
    0.4230   -4.3180   -1.2710 O   0  0  0  0  0  0  0  0  0  0  0  0
   -0.0040   -3.0920   -0.6850 C   0  0  0  0  0  0  0  0  0  0  0  0
   -0.5400    1.8730    0.3060 C   0  0  0  0  0  0  0  0  0  0  0  0
   -1.9450    2.2450   -0.2080 C   0  0  0  0  0  0  0  0  0  0  0  0
   -2.1990    3.7500   -0.0690 C   0  0  0  0  0  0  0  0  0  0  0  0
   -1.2010    4.4880   -0.7620 O   0  0  0  0  0  0  0  0  0  0  0  0
    0.1120    4.2530   -0.2680 C   0  0  0  0  0  0  0  0  0  0  0  0
    0.4820    2.7740   -0.4190 C   0  0  0  0  0  0  0  0  0  0  0  0
  1  2  1  0  0  0  0
  2  3  2  0  0  0  0
  2  4  1  0  0  0  0
  4  5  1  0  0  0  0
  4 14  1  0  0  0  0
  5  6  1  0  0  0  0
  6  7  2  0  0  0  0
  6  8  2  0  0  0  0
  6  9  1  0  0  0  0
  9 10  1  0  0  0  0
  9 13  1  0  0  0  0
 10 11  1  0  0  0  0
 11 12  1  0  0  0  0
 12 13  1  0  0  0  0
 14 15  1  0  0  0  0
 14 19  1  0  0  0  0
 15 16  1  0  0  0  0
 16 17  1  0  0  0  0
 17 18  1  0  0  0  0
 18 19  1  0  0  0  0
M  CHG  1   1  -1
M  END
>  <NScode>
NS-025055442-0000

>  <a_acc>
5

>  <a_don>
3

>  <chiral>
2

>  <opr_nrot>
7

>  <Weight>
293.34

>  <druglike>
1

>  <lip_druglike>
1

>  <lip_violation>
0

>  <logS>
-0.65943998

$$$$
