NS-042257483-0000
  MOE2022           3D

 15 16  0  0  0  0  0  0  0  0999 V2000
    4.3870    6.8640    0.1860 C   0  0  0  0  0  0  0  0  0  0  0  0
    3.2890    5.8250    0.1140 C   0  0  0  0  0  0  0  0  0  0  0  0
    3.0370    4.9940    1.1970 C   0  0  0  0  0  0  0  0  0  0  0  0
    2.0370    4.0310    1.1270 C   0  0  0  0  0  0  0  0  0  0  0  0
    1.2750    3.8600   -0.0360 C   0  0  0  0  0  0  0  0  0  0  0  0
    1.5170    4.7270   -1.1220 C   0  0  0  0  0  0  0  0  0  0  0  0
    0.5120    4.7190   -2.7380 Br  0  0  0  0  0  0  0  0  0  0  0  0
    2.5260    5.6860   -1.0390 C   0  0  0  0  0  0  0  0  0  0  0  0
    0.1830    2.7780   -0.0490 C   0  0  0  0  0  0  0  0  0  0  0  0
   -1.1850    3.4560    0.2510 C   0  0  0  0  0  0  0  0  0  0  0  0
   -2.4470    2.5860    0.2200 C   0  0  0  0  0  0  0  0  0  0  0  0
   -2.9720    2.2640   -1.1240 N   0  3  0  0  0  0  0  0  0  0  0  0
    0.2430    1.7770   -1.2630 C   0  0  0  0  0  0  0  0  0  0  0  0
    0.1100    0.5710   -0.3070 C   0  0  0  0  0  0  0  0  0  0  0  0
    0.4510    1.5200    0.8640 C   0  0  0  0  0  0  0  0  0  0  0  0
  1  2  1  0  0  0  0
  2  3  1  0  0  0  0
  2  8  2  0  0  0  0
  3  4  2  0  0  0  0
  4  5  1  0  0  0  0
  5  6  2  0  0  0  0
  5  9  1  0  0  0  0
  6  7  1  0  0  0  0
  6  8  1  0  0  0  0
  9 10  1  0  0  0  0
  9 13  1  0  0  0  0
  9 15  1  0  0  0  0
 10 11  1  0  0  0  0
 11 12  1  0  0  0  0
 13 14  1  0  0  0  0
 14 15  1  0  0  0  0
M  CHG  1  12   1
M  END
>  <NScode>
NS-042257483-0000

>  <a_acc>
1

>  <a_don>
1

>  <chiral>
0

>  <opr_nrot>
3

>  <Weight>
268.198

>  <druglike>
1

>  <lip_druglike>
1

>  <lip_violation>
0

>  <logS>
-4.3209701

$$$$
