NS-000638647-0000
  MOE2022           3D

 22 23  0  0  0  0  0  0  0  0999 V2000
    6.9350   -1.6520   -0.1070 N   0  0  0  0  0  0  0  0  0  0  0  0
    5.9760   -0.8810   -0.5090 C   0  0  0  0  0  0  0  0  0  0  0  0
    6.8000   -3.0200   -0.0510 N   0  0  0  0  0  0  0  0  0  0  0  0
    6.1530    0.5740   -0.5050 C   0  0  0  0  0  0  0  0  0  0  0  0
    0.4510   -4.0090    0.4170 C   0  0  0  0  0  0  0  0  0  0  0  0
    5.1430    1.3880   -0.9120 N   0  0  0  0  0  0  0  0  0  0  0  0
    0.6990   -5.2240    0.2660 O   0  5  0  0  0  0  0  0  0  0  0  0
    7.8420   -3.8770    0.3610 C   0  0  0  0  0  0  0  0  0  0  0  0
   -0.6470   -3.4450    0.2340 O   0  0  0  0  0  0  0  0  0  0  0  0
    4.6490   -1.4870   -0.9820 C   0  0  0  0  0  0  0  0  0  0  0  0
    1.6100   -3.1290    0.8600 C   0  0  0  0  0  0  0  0  0  0  0  0
    5.2820    2.7100   -0.9110 C   0  0  0  0  0  0  0  0  0  0  0  0
    7.3620    1.1610   -0.0810 C   0  0  0  0  0  0  0  0  0  0  0  0
    7.5600   -5.2370    0.5010 C   0  0  0  0  0  0  0  0  0  0  0  0
    9.1230   -3.3850    0.6200 C   0  0  0  0  0  0  0  0  0  0  0  0
    3.6980   -1.8740    0.1660 C   0  0  0  0  0  0  0  0  0  0  0  0
    2.4930   -2.6880   -0.3190 C   0  0  0  0  0  0  0  0  0  0  0  0
    6.4590    3.3220   -0.4980 C   0  0  0  0  0  0  0  0  0  0  0  0
    7.5210    2.5370   -0.0750 C   0  0  0  0  0  0  0  0  0  0  0  0
   10.1250   -4.2630    1.0190 C   0  0  0  0  0  0  0  0  0  0  0  0
    8.5690   -6.1080    0.9010 C   0  0  0  0  0  0  0  0  0  0  0  0
    9.8510   -5.6230    1.1600 C   0  0  0  0  0  0  0  0  0  0  0  0
  1  2  2  0  0  0  0
  1  3  1  0  0  0  0
  2  4  1  0  0  0  0
  2 10  1  0  0  0  0
  3  8  1  0  0  0  0
  4  6  1  0  0  0  0
  4 13  2  0  0  0  0
  5  7  1  0  0  0  0
  5  9  2  0  0  0  0
  5 11  1  0  0  0  0
  6 12  2  0  0  0  0
  8 14  1  0  0  0  0
  8 15  2  0  0  0  0
 10 16  1  0  0  0  0
 11 17  1  0  0  0  0
 12 18  1  0  0  0  0
 13 19  1  0  0  0  0
 14 21  2  0  0  0  0
 15 20  1  0  0  0  0
 16 17  1  0  0  0  0
 18 19  2  0  0  0  0
 20 22  2  0  0  0  0
 21 22  1  0  0  0  0
M  CHG  1   7  -1
M  END
>  <NScode>
NS-000638647-0000

>  <a_acc>
3

>  <a_don>
3

>  <chiral>
0

>  <opr_nrot>
8

>  <Weight>
297.358

>  <druglike>
1

>  <lip_druglike>
1

>  <lip_violation>
0

>  <logS>
-2.3637099

$$$$
