NS-016213279-0000
  MOE2022           3D

 31 34  0  0  0  0  0  0  0  0999 V2000
    2.5100    3.7590   -2.5690 S   0  0  0  0  0  0  0  0  0  0  0  0
   -4.2380   -0.1240    0.3130 C   0  0  0  0  0  0  0  0  0  0  0  0
   -5.4940    0.4130    0.3170 N   0  0  0  0  0  0  0  0  0  0  0  0
    3.5480    4.0630   -1.3220 N   0  0  0  0  0  0  0  0  0  0  0  0
   -6.4010   -0.4740    0.8360 N   0  0  0  0  0  0  0  0  0  0  0  0
   -4.3590   -1.3650    0.8400 C   0  0  0  0  0  0  0  0  0  0  0  0
   -3.0850    0.5750   -0.1800 N   0  0  0  0  0  0  0  0  0  0  0  0
   -1.7830    0.1140   -0.2260 C   0  0  0  0  0  0  0  0  0  0  0  0
   -5.7040   -1.5340    1.1440 C   0  0  0  0  0  0  0  0  0  0  0  0
    4.4250    2.9670   -0.8880 C   0  0  0  0  0  0  0  0  0  0  0  0
    1.2420    2.6830   -1.8540 C   0  0  0  0  0  0  0  0  0  0  0  0
    3.2010    3.0290   -3.5740 O   0  0  0  0  0  0  0  0  0  0  0  0
    1.8900    4.9760   -2.9630 O   0  0  0  0  0  0  0  0  0  0  0  0
    5.3400    3.2750    0.2910 C   0  0  0  0  0  0  0  0  0  0  0  0
   -0.7560    1.0090   -0.7710 C   0  0  0  0  0  0  0  0  0  0  0  0
    3.1040    4.9210   -0.2230 C   0  0  0  0  0  0  0  0  0  0  0  0
   -1.5290   -1.0180    0.1620 O   0  0  0  0  0  0  0  0  0  0  0  0
    5.2730    4.4940    0.9710 C   0  0  0  0  0  0  0  0  0  0  0  0
   -5.9310    1.7450   -0.1410 C   0  0  0  0  0  0  0  0  0  0  0  0
    1.3490    1.2930   -1.9470 C   0  0  0  0  0  0  0  0  0  0  0  0
    0.1210    3.2280   -1.2200 C   0  0  0  0  0  0  0  0  0  0  0  0
    4.2930    5.5470    0.5110 C   0  0  0  0  0  0  0  0  0  0  0  0
    0.3680    0.4680   -1.4080 C   0  0  0  0  0  0  0  0  0  0  0  0
   -0.8610    2.4050   -0.6780 C   0  0  0  0  0  0  0  0  0  0  0  0
   -6.3240   -2.7650    1.7500 C   0  0  0  0  0  0  0  0  0  0  0  0
    6.2550    2.3080    0.7100 C   0  0  0  0  0  0  0  0  0  0  0  0
    6.1190    4.7390    2.0500 C   0  0  0  0  0  0  0  0  0  0  0  0
   -5.7340    1.9680   -1.6520 C   0  0  0  0  0  0  0  0  0  0  0  0
   -5.3400    2.8980    0.6910 C   0  0  0  0  0  0  0  0  0  0  0  0
    7.0950    2.5540    1.7910 C   0  0  0  0  0  0  0  0  0  0  0  0
    7.0270    3.7690    2.4620 C   0  0  0  0  0  0  0  0  0  0  0  0
  1  4  1  0  0  0  0
  1 11  1  0  0  0  0
  1 12  2  0  0  0  0
  1 13  2  0  0  0  0
  2  3  1  0  0  0  0
  2  6  2  0  0  0  0
  2  7  1  0  0  0  0
  3  5  1  0  0  0  0
  3 19  1  0  0  0  0
  4 10  1  0  0  0  0
  4 16  1  0  0  0  0
  5  9  2  0  0  0  0
  6  9  1  0  0  0  0
  7  8  1  0  0  0  0
  8 15  1  0  0  0  0
  8 17  2  0  0  0  0
  9 25  1  0  0  0  0
 10 14  1  0  0  0  0
 11 20  2  0  0  0  0
 11 21  1  0  0  0  0
 14 18  2  0  0  0  0
 14 26  1  0  0  0  0
 15 23  2  0  0  0  0
 15 24  1  0  0  0  0
 16 22  1  0  0  0  0
 18 22  1  0  0  0  0
 18 27  1  0  0  0  0
 19 28  1  0  0  0  0
 19 29  1  0  0  0  0
 20 23  1  0  0  0  0
 21 24  2  0  0  0  0
 26 30  2  0  0  0  0
 27 31  2  0  0  0  0
 30 31  1  0  0  0  0
M  END
>  <NScode>
NS-016213279-0000

>  <a_acc>
4

>  <a_don>
1

>  <chiral>
0

>  <opr_nrot>
5

>  <Weight>
438.552

>  <druglike>
1

>  <lip_druglike>
1

>  <lip_violation>
0

>  <logS>
-4.82932

$$$$
