NS-005935358-0000
  MOE2022           3D

 17 18  0  0  0  0  0  0  0  0999 V2000
   -1.0230   -0.2510    0.0000 N   0  0  0  0  0  0  0  0  0  0  0  0
   -0.7630    0.9070   -0.8800 C   0  0  0  0  0  0  0  0  0  0  0  0
    0.1290   -1.1960   -0.0180 C   0  0  0  0  0  0  0  0  0  0  0  0
   -2.2410   -0.9730   -0.4410 C   0  0  0  0  0  0  0  0  0  0  0  0
    0.4330    1.7310   -0.4390 C   0  0  0  0  0  0  0  0  0  0  0  0
   -0.1150   -2.4530    0.8410 C   0  0  0  0  0  0  0  0  0  0  0  0
   -2.5410   -2.2190    0.4190 C   0  0  0  0  0  0  0  0  0  0  0  0
    0.4910    2.2310    0.8650 C   0  0  0  0  0  0  0  0  0  0  0  0
    1.4780    1.9930   -1.3320 C   0  0  0  0  0  0  0  0  0  0  0  0
   -1.3860   -3.1390    0.5180 N   0  0  0  0  0  0  0  0  0  0  0  0
    1.5810    2.9910    1.2790 C   0  0  0  0  0  0  0  0  0  0  0  0
    2.5730    2.7520   -0.9260 C   0  0  0  0  0  0  0  0  0  0  0  0
   -1.4490   -4.4820    0.4740 C   0  0  0  0  0  0  0  0  0  0  0  0
    2.6040    3.2380    0.3740 C   0  0  0  0  0  0  0  0  0  0  0  0
   -2.7850   -5.1650    0.2290 C   0  0  0  0  0  0  0  0  0  0  0  0
   -0.4580   -5.1850    0.6270 O   0  0  0  0  0  0  0  0  0  0  0  0
    3.6670    3.9760    0.7710 F   0  0  0  0  0  0  0  0  0  0  0  0
  1  2  1  0  0  0  0
  1  3  1  0  0  0  0
  1  4  1  0  0  0  0
  2  5  1  0  0  0  0
  3  6  1  0  0  0  0
  4  7  1  0  0  0  0
  5  8  2  0  0  0  0
  5  9  1  0  0  0  0
  6 10  1  0  0  0  0
  7 10  1  0  0  0  0
  8 11  1  0  0  0  0
  9 12  2  0  0  0  0
 10 13  1  0  0  0  0
 11 14  2  0  0  0  0
 12 14  1  0  0  0  0
 13 15  1  0  0  0  0
 13 16  2  0  0  0  0
 14 17  1  0  0  0  0
M  END
>  <NScode>
NS-005935358-0000

>  <a_acc>
2

>  <a_don>
0

>  <chiral>
0

>  <opr_nrot>
4

>  <Weight>
236.28999

>  <druglike>
1

>  <lip_druglike>
1

>  <lip_violation>
0

>  <logS>
-1.7740901

$$$$
