NS-023497846-0000
  MOE2022           3D

 15 15  0  0  0  0  0  0  0  0999 V2000
    2.1210    6.0860   -0.5820 O   0  5  0  0  0  0  0  0  0  0  0  0
    3.0870    5.2890   -0.7420 C   0  0  0  0  0  0  0  0  0  0  0  0
    4.1720    5.6960   -1.2450 O   0  0  0  0  0  0  0  0  0  0  0  0
    2.9890    3.8740   -0.3240 C   0  0  0  0  0  0  0  0  0  0  0  0
    4.1480    3.2420    0.1510 C   0  0  0  0  0  0  0  0  0  0  0  0
    4.1330    1.9140    0.5550 C   0  0  0  0  0  0  0  0  0  0  0  0
    2.9580    1.1690    0.4880 C   0  0  0  0  0  0  0  0  0  0  0  0
    2.9430   -0.5610    0.9810 S   0  0  0  0  0  0  0  0  0  0  0  0
    1.6250   -0.9350    1.3720 O   0  0  0  0  0  0  0  0  0  0  0  0
    3.3480   -1.4260   -0.5310 C   0  0  0  0  0  0  0  0  0  0  0  0
    3.4490   -2.9650   -0.4610 C   0  0  0  0  0  0  0  0  0  0  0  0
    3.9860   -0.7950    1.9240 O   0  0  0  0  0  0  0  0  0  0  0  0
    1.7930    1.7890    0.0320 C   0  0  0  0  0  0  0  0  0  0  0  0
    1.7970    3.1200   -0.3800 C   0  0  0  0  0  0  0  0  0  0  0  0
    0.4990    3.7230   -0.8830 C   0  0  0  0  0  0  0  0  0  0  0  0
  1  2  1  0  0  0  0
  2  3  2  0  0  0  0
  2  4  1  0  0  0  0
  4  5  1  0  0  0  0
  4 14  2  0  0  0  0
  5  6  2  0  0  0  0
  6  7  1  0  0  0  0
  7  8  1  0  0  0  0
  7 13  2  0  0  0  0
  8  9  2  0  0  0  0
  8 10  1  0  0  0  0
  8 12  2  0  0  0  0
 10 11  1  0  0  0  0
 13 14  1  0  0  0  0
 14 15  1  0  0  0  0
M  CHG  1   1  -1
M  END
>  <NScode>
NS-023497846-0000

>  <a_acc>
3

>  <a_don>
2

>  <chiral>
0

>  <opr_nrot>
3

>  <Weight>
228.26799

>  <druglike>
1

>  <lip_druglike>
1

>  <lip_violation>
0

>  <logS>
-2.2960999

$$$$
