NS-006425149-0000
  MOE2022           3D

 20 21  0  0  0  0  0  0  0  0999 V2000
   -1.2730    3.9480    0.1190 C   0  0  0  0  0  0  0  0  0  0  0  0
   -1.3000    2.4140    0.2750 C   0  0  0  0  0  0  0  0  0  0  0  0
   -1.3310   -0.3760    0.6430 C   0  0  0  0  0  0  0  0  0  0  0  0
   -1.5610    1.5500   -0.7960 C   0  0  0  0  0  0  0  0  0  0  0  0
   -1.0580    1.8500    1.5320 C   0  0  0  0  0  0  0  0  0  0  0  0
   -1.5770    0.1710   -0.6130 C   0  0  0  0  0  0  0  0  0  0  0  0
   -1.0730    0.4720    1.7150 C   0  0  0  0  0  0  0  0  0  0  0  0
   -1.5540    4.4200   -1.3190 C   0  0  0  0  0  0  0  0  0  0  0  0
   -2.3460    4.5800    1.0200 C   0  0  0  0  0  0  0  0  0  0  0  0
    0.1140    4.4850    0.5090 C   0  0  0  0  0  0  0  0  0  0  0  0
    1.0640   -4.6850   -0.3880 C   0  0  0  0  0  0  0  0  0  0  0  0
   -0.1320   -4.0440    0.3100 C   0  0  0  0  0  0  0  0  0  0  0  0
   -0.1070   -2.5380    0.2430 N   0  3  0  0  0  0  0  0  0  0  0  0
    1.1980   -1.9820    0.7620 C   0  0  0  0  0  0  0  0  0  0  0  0
    2.4150   -2.5920    0.0710 C   0  0  0  0  0  0  0  0  0  0  0  0
    2.4130   -4.1350    0.1240 C   0  0  0  0  0  0  0  0  0  0  0  0
    3.5800   -4.7180   -0.6720 C   0  0  0  0  0  0  0  0  0  0  0  0
    4.4030   -5.3940   -0.0280 O   0  5  0  0  0  0  0  0  0  0  0  0
    3.5910   -4.4650   -1.8940 O   0  0  0  0  0  0  0  0  0  0  0  0
   -1.3170   -1.8720    0.8340 C   0  0  0  0  0  0  0  0  0  0  0  0
  1  2  1  0  0  0  0
  1  8  1  0  0  0  0
  1  9  1  0  0  0  0
  1 10  1  0  0  0  0
  2  4  2  0  0  0  0
  2  5  1  0  0  0  0
  3  6  2  0  0  0  0
  3  7  1  0  0  0  0
  3 20  1  0  0  0  0
  4  6  1  0  0  0  0
  5  7  2  0  0  0  0
 11 12  1  0  0  0  0
 11 16  1  0  0  0  0
 12 13  1  0  0  0  0
 13 14  1  0  0  0  0
 13 20  1  0  0  0  0
 14 15  1  0  0  0  0
 15 16  1  0  0  0  0
 16 17  1  0  0  0  0
 17 18  1  0  0  0  0
 17 19  2  0  0  0  0
M  CHG  1  13   1
M  CHG  1  18  -1
M  END
>  <NScode>
NS-006425149-0000

>  <a_acc>
2

>  <a_don>
2

>  <chiral>
0

>  <opr_nrot>
6

>  <Weight>
275.392

>  <druglike>
1

>  <lip_druglike>
1

>  <lip_violation>
0

>  <logS>
-3.58061

$$$$
