NS-024265003-00001-(4-{[5-methyl-2-(3-pyridyl)-1H-imidazol-1-yl]methyl}piperi...
  MOE2022           3D

 23 25  0  0  0  0  0  0  0  0999 V2000
    1.3620   -1.8120   -0.3810 C   0  0  0  0  0  0  0  0  0  0  0  0
    0.2330   -1.8620    0.3390 N   0  0  0  0  0  0  0  0  0  0  0  0
    1.3230   -2.8600   -1.1900 N   0  3  0  0  0  0  0  0  0  0  0  0
   -2.0730    2.6940   -0.3070 N   0  0  0  0  0  0  0  0  0  0  0  0
   -0.4980   -2.9780   -0.0060 C   0  0  0  0  0  0  0  0  0  0  0  0
    0.1970   -3.5980   -0.9840 C   0  0  0  0  0  0  0  0  0  0  0  0
    2.4470   -0.8490   -0.3090 C   0  0  0  0  0  0  0  0  0  0  0  0
   -2.8900    3.7690   -0.2210 C   0  0  0  0  0  0  0  0  0  0  0  0
   -0.1440   -0.8570    1.3620 C   0  0  0  0  0  0  0  0  0  0  0  0
   -0.6150    2.7750   -0.0770 C   0  0  0  0  0  0  0  0  0  0  0  0
   -2.6060    1.4030   -0.7810 C   0  0  0  0  0  0  0  0  0  0  0  0
   -4.0900    3.6810   -0.4640 O   0  0  0  0  0  0  0  0  0  0  0  0
    3.7190    0.8420   -1.4040 N   0  0  0  0  0  0  0  0  0  0  0  0
    2.7430   -0.0560   -1.4230 C   0  0  0  0  0  0  0  0  0  0  0  0
   -0.8430    0.4340    0.8640 C   0  0  0  0  0  0  0  0  0  0  0  0
   -2.1410    0.1950    0.0590 C   0  0  0  0  0  0  0  0  0  0  0  0
    0.0520    1.3950    0.0640 C   0  0  0  0  0  0  0  0  0  0  0  0
    3.2180   -0.6970    0.8480 C   0  0  0  0  0  0  0  0  0  0  0  0
   -2.3020    5.1290    0.1940 C   0  0  0  0  0  0  0  0  0  0  0  0
   -1.8010   -3.3780    0.6510 C   0  0  0  0  0  0  0  0  0  0  0  0
    4.4610    1.0040   -0.3070 C   0  0  0  0  0  0  0  0  0  0  0  0
    4.2350    0.2450    0.8390 C   0  0  0  0  0  0  0  0  0  0  0  0
   -3.3120    6.2910    0.1950 C   0  0  0  0  0  0  0  0  0  0  0  0
  1  2  1  0  0  0  0
  1  3  2  0  0  0  0
  1  7  1  0  0  0  0
  2  5  1  0  0  0  0
  2  9  1  0  0  0  0
  3  6  1  0  0  0  0
  4  8  1  0  0  0  0
  4 10  1  0  0  0  0
  4 11  1  0  0  0  0
  5  6  2  0  0  0  0
  5 20  1  0  0  0  0
  7 14  2  0  0  0  0
  7 18  1  0  0  0  0
  8 12  2  0  0  0  0
  8 19  1  0  0  0  0
  9 15  1  0  0  0  0
 10 17  1  0  0  0  0
 11 16  1  0  0  0  0
 13 14  1  0  0  0  0
 13 21  2  0  0  0  0
 15 16  1  0  0  0  0
 15 17  1  0  0  0  0
 18 22  2  0  0  0  0
 19 23  1  0  0  0  0
 21 22  1  0  0  0  0
M  CHG  1   3   1
M  END
>  <NScode>
NS-024265003-0000

>  <a_acc>
3

>  <a_don>
0

>  <chiral>
0

>  <opr_nrot>
6

>  <Weight>
312.41699

>  <druglike>
1

>  <lip_druglike>
1

>  <lip_violation>
0

>  <logS>
-2.52844

$$$$
