NS-050067301-0000
  MOE2022           3D

 28 31  0  0  1  0  0  0  0  0999 V2000
    0.5370   -3.6840   -1.8870 C   0  0  0  0  0  0  0  0  0  0  0  0
    0.9970   -2.4360   -1.1180 C   0  0  3  0  0  0  0  0  0  0  0  0
    1.4520   -2.8210    0.2100 O   0  0  0  0  0  0  0  0  0  0  0  0
    2.0940   -1.9970    1.0800 C   0  0  0  0  0  0  0  0  0  0  0  0
    1.9090   -2.2810    2.2540 O   0  0  0  0  0  0  0  0  0  0  0  0
    2.8950   -0.8400    0.6440 C   0  0  0  0  0  0  0  0  0  0  0  0
    3.1420    0.2610    1.4220 C   0  0  0  0  0  0  0  0  0  0  0  0
    3.8890    1.0890    0.6880 N   0  0  0  0  0  0  0  0  0  0  0  0
    4.3910    2.3490    1.0310 C   0  0  0  0  0  0  0  0  0  0  0  0
    5.1360    3.0150    0.0980 C   0  0  0  0  0  0  0  0  0  0  0  0
    5.7810    4.5720    0.4590 Cl  0  0  0  0  0  0  0  0  0  0  0  0
    5.3970    2.4440   -1.1860 C   0  0  0  0  0  0  0  0  0  0  0  0
    4.8940    1.2080   -1.4920 C   0  0  0  0  0  0  0  0  0  0  0  0
    5.2030    0.5000   -3.0430 Cl  0  0  0  0  0  0  0  0  0  0  0  0
    4.1060    0.4870   -0.5300 C   0  0  0  0  0  0  0  0  0  0  0  0
    3.5140   -0.6950   -0.5720 N   0  0  0  0  0  0  0  0  0  0  0  0
   -0.0540   -1.3240   -1.0730 C   0  0  0  0  0  0  0  0  0  0  0  0
    0.2180   -0.2960   -1.6620 O   0  0  0  0  0  0  0  0  0  0  0  0
   -1.3450   -1.4580   -0.3920 C   0  0  0  0  0  0  0  0  0  0  0  0
   -1.6310   -2.5260    0.4950 C   0  0  0  0  0  0  0  0  0  0  0  0
   -2.8720   -2.6370    1.1160 C   0  0  0  0  0  0  0  0  0  0  0  0
   -3.8280   -1.6660    0.8450 C   0  0  0  0  0  0  0  0  0  0  0  0
   -5.1230   -1.5720    1.3370 N   0  0  0  0  0  0  0  0  0  0  0  0
   -5.7620   -0.4780    0.8450 C   0  0  0  0  0  0  0  0  0  0  0  0
   -6.9030   -0.2170    1.1490 O   0  0  0  0  0  0  0  0  0  0  0  0
   -4.8150    0.2620   -0.0770 C   0  0  0  0  0  0  0  0  0  0  0  0
   -3.5820   -0.6050   -0.0060 C   0  0  0  0  0  0  0  0  0  0  0  0
   -2.3480   -0.4890   -0.6250 C   0  0  0  0  0  0  0  0  0  0  0  0
  1  2  1  0  0  0  0
  2  3  1  0  0  0  0
  2 17  1  0  0  0  0
  3  4  1  0  0  0  0
  4  5  2  0  0  0  0
  4  6  1  0  0  0  0
  6  7  2  0  0  0  0
  6 16  1  0  0  0  0
  7  8  1  0  0  0  0
  8  9  1  0  0  0  0
  8 15  1  0  0  0  0
  9 10  2  0  0  0  0
 10 11  1  0  0  0  0
 10 12  1  0  0  0  0
 12 13  2  0  0  0  0
 13 14  1  0  0  0  0
 13 15  1  0  0  0  0
 15 16  2  0  0  0  0
 17 18  2  0  0  0  0
 17 19  1  0  0  0  0
 19 20  1  0  0  0  0
 19 28  2  0  0  0  0
 20 21  2  0  0  0  0
 21 22  1  0  0  0  0
 22 23  1  0  0  0  0
 22 27  2  0  0  0  0
 23 24  1  0  0  0  0
 24 25  2  0  0  0  0
 24 26  1  0  0  0  0
 26 27  1  0  0  0  0
 27 28  1  0  0  0  0
M  END
>  <NScode>
NS-050067301-0000

>  <a_acc>
4

>  <a_don>
1

>  <chiral>
1

>  <opr_nrot>
4

>  <Weight>
418.23599

>  <druglike>
1

>  <lip_druglike>
1

>  <lip_violation>
0

>  <logS>
-5.6244502

$$$$
