NS-017197196-0000
  MOE2022           3D

 32 36  0  0  1  0  0  0  0  0999 V2000
    0.0170   -2.9720   -0.4080 N   0  0  0  0  0  0  0  0  0  0  0  0
    0.7680   -1.8750   -0.2450 C   0  0  0  0  0  0  0  0  0  0  0  0
    0.2140   -0.7250    0.4130 C   0  0  0  0  0  0  0  0  0  0  0  0
    0.7130   -3.9060   -1.0360 N   0  0  0  0  0  0  0  0  0  0  0  0
    1.8870   -3.3660   -1.2460 N   0  0  0  0  0  0  0  0  0  0  0  0
    2.1680    2.2480   -0.8450 C   0  0  0  0  0  0  0  0  0  0  0  0
    1.9390   -2.1070   -0.7610 N   0  0  0  0  0  0  0  0  0  0  0  0
   -1.3260   -3.0790    0.0460 C   0  0  0  0  0  0  0  0  0  0  0  0
    1.1040    1.3820   -0.6390 N   0  0  0  0  0  0  0  0  0  0  0  0
   -1.0690   -0.7720    0.8720 C   0  0  0  0  0  0  0  0  0  0  0  0
    3.3080    2.2520    0.0640 C   0  0  0  0  0  0  0  0  0  0  0  0
   -1.8680   -1.9570    0.6950 C   0  0  0  0  0  0  0  0  0  0  0  0
    1.0600    0.5250    0.5650 C   0  0  0  0  0  0  0  0  0  0  0  0
   -2.0660   -4.2510   -0.1510 C   0  0  0  0  0  0  0  0  0  0  0  0
   -0.1670    1.6370   -1.3610 C   0  0  0  0  0  0  0  0  0  0  0  0
    4.4280    1.4060   -0.0880 C   0  0  0  0  0  0  0  0  0  0  0  0
    2.0850    3.0320   -1.7870 O   0  0  0  0  0  0  0  0  0  0  0  0
   -3.1950   -2.0390    1.1490 C   0  0  0  0  0  0  0  0  0  0  0  0
   -1.4710    2.4990    0.5310 O   0  0  0  0  0  0  0  0  0  0  0  0
   -0.9940    2.7960   -0.7710 C   0  0  3  0  0  0  0  0  0  0  0  0
   -3.3720   -4.3010    0.3090 C   0  0  0  0  0  0  0  0  0  0  0  0
   -3.9400   -3.1960    0.9610 C   0  0  0  0  0  0  0  0  0  0  0  0
    3.2830    3.1280    1.1580 C   0  0  0  0  0  0  0  0  0  0  0  0
    4.6050    0.5110   -1.1230 O   0  0  0  0  0  0  0  0  0  0  0  0
   -2.4490    3.4730    0.8400 C   0  0  0  0  0  0  0  0  0  0  0  0
    5.4640    1.4270    0.8430 C   0  0  0  0  0  0  0  0  0  0  0  0
   -5.3690   -3.2780    1.4500 C   0  0  0  0  0  0  0  0  0  0  0  0
    3.8720    0.3620   -2.3630 C   0  0  0  0  0  0  0  0  0  0  0  0
   -2.2790    3.0980   -1.5370 C   0  0  0  0  0  0  0  0  0  0  0  0
    4.3230    3.1510    2.0810 C   0  0  0  0  0  0  0  0  0  0  0  0
   -3.1630    3.7630   -0.4810 C   0  0  0  0  0  0  0  0  0  0  0  0
    5.4120    2.2970    1.9260 C   0  0  0  0  0  0  0  0  0  0  0  0
  1  2  1  0  0  0  0
  1  4  1  0  0  0  0
  1  8  1  0  0  0  0
  2  3  1  0  0  0  0
  2  7  2  0  0  0  0
  3 10  2  0  0  0  0
  3 13  1  0  0  0  0
  4  5  2  0  0  0  0
  5  7  1  0  0  0  0
  6  9  1  0  0  0  0
  6 11  1  0  0  0  0
  6 17  2  0  0  0  0
  8 12  2  0  0  0  0
  8 14  1  0  0  0  0
  9 13  1  0  0  0  0
  9 15  1  0  0  0  0
 10 12  1  0  0  0  0
 11 16  2  0  0  0  0
 11 23  1  0  0  0  0
 12 18  1  0  0  0  0
 14 21  2  0  0  0  0
 15 20  1  0  0  0  0
 16 24  1  0  0  0  0
 16 26  1  0  0  0  0
 18 22  2  0  0  0  0
 19 20  1  0  0  0  0
 19 25  1  0  0  0  0
 20 29  1  0  0  0  0
 21 22  1  0  0  0  0
 22 27  1  0  0  0  0
 23 30  2  0  0  0  0
 24 28  1  0  0  0  0
 25 31  1  0  0  0  0
 26 32  2  0  0  0  0
 29 31  1  0  0  0  0
 30 32  1  0  0  0  0
M  END
>  <NScode>
NS-017197196-0000

>  <a_acc>
6

>  <a_don>
0

>  <chiral>
1

>  <opr_nrot>
7

>  <Weight>
431.496

>  <druglike>
1

>  <lip_druglike>
1

>  <lip_violation>
0

>  <logS>
-4.5503201

$$$$
