NS-022262821-0000
  MOE2022           3D

 16 17  0  0  0  0  0  0  0  0999 V2000
    1.2020    7.6330   -0.8110 N   0  3  0  0  0  0  0  0  0  0  0  0
   -0.7980    2.2120    0.3260 C   0  0  0  0  0  0  0  0  0  0  0  0
    1.3830    6.3450   -0.1710 C   0  0  0  0  0  0  0  0  0  0  0  0
   -1.8410    1.4710    0.5770 N   0  0  0  0  0  0  0  0  0  0  0  0
    0.2510    5.5360   -0.0530 C   0  0  0  0  0  0  0  0  0  0  0  0
    0.1370    1.5640   -0.3130 N   0  3  0  0  0  0  0  0  0  0  0  0
   -0.7380    3.4760    0.6750 N   0  0  0  0  0  0  0  0  0  0  0  0
    1.8840    7.9480   -1.7700 O   0  5  0  0  0  0  0  0  0  0  0  0
    0.3250    8.3780   -0.4090 O   0  0  0  0  0  0  0  0  0  0  0  0
    0.4000    4.2950    0.5520 C   0  0  0  0  0  0  0  0  0  0  0  0
    2.6460    5.9510    0.3080 C   0  0  0  0  0  0  0  0  0  0  0  0
    2.7530    4.6990    0.9180 C   0  0  0  0  0  0  0  0  0  0  0  0
    1.6370    3.8730    1.0470 C   0  0  0  0  0  0  0  0  0  0  0  0
   -1.6470    0.1120    0.0720 C   0  0  0  0  0  0  0  0  0  0  0  0
   -0.2630    0.1850   -0.5720 C   0  0  0  0  0  0  0  0  0  0  0  0
    3.8810    6.8300    0.1920 C   0  0  0  0  0  0  0  0  0  0  0  0
  1  3  1  0  0  0  0
  1  8  1  0  0  0  0
  1  9  2  0  0  0  0
  2  4  1  0  0  0  0
  2  6  2  0  0  0  0
  2  7  1  0  0  0  0
  3  5  2  0  0  0  0
  3 11  1  0  0  0  0
  4 14  1  0  0  0  0
  5 10  1  0  0  0  0
  6 15  1  0  0  0  0
  7 10  1  0  0  0  0
 10 13  2  0  0  0  0
 11 12  2  0  0  0  0
 11 16  1  0  0  0  0
 12 13  1  0  0  0  0
 14 15  1  0  0  0  0
M  CHG  1   1   1
M  CHG  1   6   1
M  CHG  1   8  -1
M  END
>  <NScode>
NS-022262821-0000

>  <a_acc>
1

>  <a_don>
2

>  <chiral>
0

>  <opr_nrot>
3

>  <Weight>
220.23199

>  <druglike>
1

>  <lip_druglike>
1

>  <lip_violation>
0

>  <logS>
-2.6224999

$$$$
