NS-025029867-0000
  MOE2022           3D

 25 27  0  0  1  0  0  0  0  0999 V2000
   -5.6720   -2.4090    0.8160 C   0  0  0  0  0  0  0  0  0  0  0  0
   -4.4000   -1.8520    0.1960 C   0  0  0  0  0  0  0  0  0  0  0  0
   -3.3660   -2.5050    0.2880 O   0  0  0  0  0  0  0  0  0  0  0  0
   -4.3880   -0.6210   -0.4190 N   0  0  0  0  0  0  0  0  0  0  0  0
   -3.1010   -0.0480   -0.8940 C   0  0  0  0  0  0  0  0  0  0  0  0
   -2.0560    0.2590    0.2080 C   0  0  3  0  0  0  0  0  0  0  0  0
   -2.6450    0.9530    1.4350 C   0  0  0  0  0  0  0  0  0  0  0  0
   -1.5080    1.7780    2.0280 C   0  0  0  0  0  0  0  0  0  0  0  0
   -0.7550    2.2090    0.7680 C   0  0  0  0  0  0  0  0  0  0  0  0
   -0.9630    1.1460   -0.2170 N   0  0  0  0  0  0  0  0  0  0  0  0
   -0.0930    0.8010   -1.1890 C   0  0  0  0  0  0  0  0  0  0  0  0
   -0.2360   -0.2300   -1.8410 O   0  0  0  0  0  0  0  0  0  0  0  0
    1.0820    1.7330   -1.5540 C   0  0  0  0  0  0  0  0  0  0  0  0
    2.3860    1.1730   -1.1790 N   0  0  0  0  0  0  0  0  0  0  0  0
    3.0820    1.5630   -0.1120 C   0  0  0  0  0  0  0  0  0  0  0  0
    2.7350    2.5260    0.5620 O   0  0  0  0  0  0  0  0  0  0  0  0
    4.3300    0.7530    0.2680 C   0  0  0  0  0  0  0  0  0  0  0  0
    5.4010    0.7670   -0.8430 C   0  0  0  0  0  0  0  0  0  0  0  0
    6.6490   -0.0280   -0.4290 C   0  0  0  0  0  0  0  0  0  0  0  0
    6.2790   -1.4690   -0.0500 C   0  0  0  0  0  0  0  0  0  0  0  0
    5.2290   -1.4880    1.0700 C   0  0  0  0  0  0  0  0  0  0  0  0
    3.9770   -0.6970    0.6630 C   0  0  0  0  0  0  0  0  0  0  0  0
   -5.5840    0.2230   -0.4900 C   0  0  0  0  0  0  0  0  0  0  0  0
   -6.7460   -0.2040   -1.3430 C   0  0  0  0  0  0  0  0  0  0  0  0
   -5.9110    0.9670   -1.7550 C   0  0  0  0  0  0  0  0  0  0  0  0
  1  2  1  0  0  0  0
  2  3  2  0  0  0  0
  2  4  1  0  0  0  0
  4  5  1  0  0  0  0
  4 23  1  0  0  0  0
  5  6  1  0  0  0  0
  6  7  1  0  0  0  0
  6 10  1  0  0  0  0
  7  8  1  0  0  0  0
  8  9  1  0  0  0  0
  9 10  1  0  0  0  0
 10 11  1  0  0  0  0
 11 12  2  0  0  0  0
 11 13  1  0  0  0  0
 13 14  1  0  0  0  0
 14 15  1  0  0  0  0
 15 16  2  0  0  0  0
 15 17  1  0  0  0  0
 17 18  1  0  0  0  0
 17 22  1  0  0  0  0
 18 19  1  0  0  0  0
 19 20  1  0  0  0  0
 20 21  1  0  0  0  0
 21 22  1  0  0  0  0
 23 24  1  0  0  0  0
 23 25  1  0  0  0  0
 24 25  1  0  0  0  0
M  END
>  <NScode>
NS-025029867-0000

>  <a_acc>
3

>  <a_don>
1

>  <chiral>
1

>  <opr_nrot>
9

>  <Weight>
349.47501

>  <druglike>
1

>  <lip_druglike>
1

>  <lip_violation>
0

>  <logS>
-2.86291

$$$$
