NS-019400042-0000
  MOE2022           3D

 32 34  0  0  1  0  0  0  0  0999 V2000
   -4.6820    2.3460    0.1550 S   0  0  0  0  0  0  0  0  0  0  0  0
    3.3200    0.4800    0.0320 N   0  0  0  0  0  0  0  0  0  0  0  0
    4.4520    0.3660   -0.7180 C   0  0  0  0  0  0  0  0  0  0  0  0
    1.9680    0.3270   -0.5190 C   0  0  3  0  0  0  0  0  0  0  0  0
    0.9220    1.2280    0.1630 C   0  0  0  0  0  0  0  0  0  0  0  0
   -5.2890    0.6470    0.0730 C   0  0  0  0  0  0  0  0  0  0  0  0
   -5.6930    3.1580    0.7300 O   0  0  0  0  0  0  0  0  0  0  0  0
   -4.1960    2.7150   -1.1290 O   0  0  0  0  0  0  0  0  0  0  0  0
   -3.4220    2.2780    1.2050 N   0  0  0  0  0  0  0  0  0  0  0  0
    4.3120    0.2250   -1.9270 O   0  0  0  0  0  0  0  0  0  0  0  0
    5.7610    0.4130   -0.0550 C   0  0  0  0  0  0  0  0  0  0  0  0
    0.9990    1.5330    1.3540 O   0  0  0  0  0  0  0  0  0  0  0  0
    1.5500   -1.1380   -0.5060 C   0  0  0  0  0  0  0  0  0  0  0  0
   -4.8380   -0.2260   -0.9210 C   0  0  0  0  0  0  0  0  0  0  0  0
   -6.2370    0.1850    0.9900 C   0  0  0  0  0  0  0  0  0  0  0  0
   -0.1580    1.5940   -0.5440 N   0  0  0  0  0  0  0  0  0  0  0  0
   -2.1940    1.5740    0.8360 C   0  0  0  0  0  0  0  0  0  0  0  0
   -5.3060   -1.5350   -0.9820 C   0  0  0  0  0  0  0  0  0  0  0  0
   -6.7060   -1.1240    0.9280 C   0  0  0  0  0  0  0  0  0  0  0  0
   -6.2420   -1.9900   -0.0580 C   0  0  0  0  0  0  0  0  0  0  0  0
   -1.2320    2.4270   -0.0070 C   0  0  0  0  0  0  0  0  0  0  0  0
    6.8820   -0.1460   -0.6860 C   0  0  0  0  0  0  0  0  0  0  0  0
    5.9300    1.0110    1.2050 C   0  0  0  0  0  0  0  0  0  0  0  0
    0.9890   -1.7190    0.6340 C   0  0  0  0  0  0  0  0  0  0  0  0
    1.7380   -1.9210   -1.6460 C   0  0  0  0  0  0  0  0  0  0  0  0
   -6.7520   -3.4140   -0.1160 C   0  0  0  0  0  0  0  0  0  0  0  0
    7.1790    1.0350    1.8150 C   0  0  0  0  0  0  0  0  0  0  0  0
    0.6000   -3.0550    0.6240 C   0  0  0  0  0  0  0  0  0  0  0  0
    1.3470   -3.2560   -1.6560 C   0  0  0  0  0  0  0  0  0  0  0  0
    8.1300   -0.1200   -0.0740 C   0  0  0  0  0  0  0  0  0  0  0  0
    8.2790    0.4690    1.1780 C   0  0  0  0  0  0  0  0  0  0  0  0
    0.7750   -3.8230   -0.5220 C   0  0  0  0  0  0  0  0  0  0  0  0
  1  6  1  0  0  0  0
  1  7  2  0  0  0  0
  1  8  2  0  0  0  0
  1  9  1  0  0  0  0
  2  3  1  0  0  0  0
  2  4  1  0  0  0  0
  3 10  2  0  0  0  0
  3 11  1  0  0  0  0
  4  5  1  0  0  0  0
  4 13  1  0  0  0  0
  5 12  2  0  0  0  0
  5 16  1  0  0  0  0
  6 14  2  0  0  0  0
  6 15  1  0  0  0  0
  9 17  1  0  0  0  0
 11 22  1  0  0  0  0
 11 23  2  0  0  0  0
 13 24  2  0  0  0  0
 13 25  1  0  0  0  0
 14 18  1  0  0  0  0
 15 19  2  0  0  0  0
 16 21  1  0  0  0  0
 17 21  1  0  0  0  0
 18 20  2  0  0  0  0
 19 20  1  0  0  0  0
 20 26  1  0  0  0  0
 22 30  2  0  0  0  0
 23 27  1  0  0  0  0
 24 28  1  0  0  0  0
 25 29  2  0  0  0  0
 27 31  2  0  0  0  0
 28 32  2  0  0  0  0
 29 32  1  0  0  0  0
 30 31  1  0  0  0  0
M  END
>  <NScode>
NS-019400042-0000

>  <a_acc>
4

>  <a_don>
3

>  <chiral>
1

>  <opr_nrot>
8

>  <Weight>
451.547

>  <druglike>
1

>  <lip_druglike>
1

>  <lip_violation>
0

>  <logS>
-5.5777202

$$$$
