NS-012447379-0000
  MOE2022           3D

 34 37  0  0  1  0  0  0  0  0999 V2000
    3.8810   -1.6490    0.4600 C   0  0  3  0  0  0  0  0  0  0  0  0
    4.1700   -0.3840   -0.3510 C   0  0  3  0  0  0  0  0  0  0  0  0
    5.3260    0.4200    0.2320 C   0  0  0  0  0  0  0  0  0  0  0  0
    2.8950    0.3210   -0.3980 N   0  0  0  0  0  0  0  0  0  0  0  0
    4.8060   -2.7870    0.0170 C   0  0  0  0  0  0  0  0  0  0  0  0
    1.8840   -0.4950   -0.0940 C   0  0  0  0  0  0  0  0  0  0  0  0
    6.6250    0.2480   -0.2610 C   0  0  0  0  0  0  0  0  0  0  0  0
    2.3790   -1.8850    0.2550 C   0  0  0  0  0  0  0  0  0  0  0  0
    7.7140    0.9270    0.3050 C   0  0  0  0  0  0  0  0  0  0  0  0
    5.9290   -3.0800    0.7140 N   0  0  0  0  0  0  0  0  0  0  0  0
    6.8150   -5.3250   -0.0190 C   0  0  2  0  0  0  0  0  0  0  0  0
    9.1190   -5.9570   -0.8540 N   0  3  3  0  0  0  0  0  0  0  0  0
    7.6340   -6.0020   -1.1380 C   0  0  2  0  0  0  0  0  0  0  0  0
    7.0040   -3.7900    0.0120 C   0  0  0  0  0  0  0  0  0  0  0  0
    5.1220    1.3030    1.2960 C   0  0  0  0  0  0  0  0  0  0  0  0
    7.4840    1.8200    1.3670 C   0  0  0  0  0  0  0  0  0  0  0  0
    4.5620   -3.3590   -1.0440 O   0  0  0  0  0  0  0  0  0  0  0  0
    0.6990   -0.1910   -0.1070 O   0  0  0  0  0  0  0  0  0  0  0  0
    6.1870    2.0050    1.8560 C   0  0  0  0  0  0  0  0  0  0  0  0
    6.8150   -0.6320   -1.3140 O   0  0  0  0  0  0  0  0  0  0  0  0
    8.9880    0.6470   -0.2150 O   0  0  0  0  0  0  0  0  0  0  0  0
    2.6910    1.6310   -1.0240 C   0  0  0  0  0  0  0  0  0  0  0  0
    9.4510   -6.6060    0.4650 C   0  0  0  0  0  0  0  0  0  0  0  0
    8.5360    2.5200    1.9480 O   0  0  0  0  0  0  0  0  0  0  0  0
    7.1230   -5.9890    1.3420 C   0  0  0  0  0  0  0  0  0  0  0  0
    9.9340   -6.4370   -2.0250 C   0  0  0  0  0  0  0  0  0  0  0  0
    6.2800   -2.4770    2.0140 C   0  0  0  0  0  0  0  0  0  0  0  0
    8.6370   -6.0290    1.6310 C   0  0  0  0  0  0  0  0  0  0  0  0
    7.2730   -5.5350   -2.5680 C   0  0  0  0  0  0  0  0  0  0  0  0
   10.2420    1.3010    0.0810 C   0  0  0  0  0  0  0  0  0  0  0  0
    7.2240   -0.1080   -2.5980 C   0  0  0  0  0  0  0  0  0  0  0  0
    8.4390    3.4920    3.0140 C   0  0  0  0  0  0  0  0  0  0  0  0
    9.6930   -5.6170   -3.3030 C   0  0  0  0  0  0  0  0  0  0  0  0
    8.4040   -4.7690   -3.2760 C   0  0  0  0  0  0  0  0  0  0  0  0
  1  2  1  0  0  0  0
  1  5  1  0  0  0  0
  1  8  1  0  0  0  0
  2  3  1  0  0  0  0
  2  4  1  0  0  0  0
  3  7  2  0  0  0  0
  3 15  1  0  0  0  0
  4  6  1  0  0  0  0
  4 22  1  0  0  0  0
  5 10  1  0  0  0  0
  5 17  2  0  0  0  0
  6  8  1  0  0  0  0
  6 18  2  0  0  0  0
  7  9  1  0  0  0  0
  7 20  1  0  0  0  0
  9 16  2  0  0  0  0
  9 21  1  0  0  0  0
 10 14  1  0  0  0  0
 10 27  1  0  0  0  0
 11 13  1  0  0  0  0
 11 14  1  0  0  0  0
 11 25  1  0  0  0  0
 12 13  1  0  0  0  0
 12 23  1  0  0  0  0
 12 26  1  0  0  0  0
 13 29  1  0  0  0  0
 15 19  2  0  0  0  0
 16 19  1  0  0  0  0
 16 24  1  0  0  0  0
 20 31  1  0  0  0  0
 21 30  1  0  0  0  0
 23 28  1  0  0  0  0
 24 32  1  0  0  0  0
 25 28  1  0  0  0  0
 26 33  1  0  0  0  0
 29 34  1  0  0  0  0
 33 34  1  0  0  0  0
M  CHG  1  12   1
M  END
>  <NScode>
NS-012447379-0000

>  <a_acc>
6

>  <a_don>
0

>  <chiral>
4

>  <opr_nrot>
9

>  <Weight>
473.61398

>  <druglike>
1

>  <lip_druglike>
1

>  <lip_violation>
0

>  <logS>
-2.7107301

$$$$
