NS-017312109-0000
  MOE2022           3D

 21 23  0  0  0  0  0  0  0  0999 V2000
    4.0890   -3.3720    0.0350 C   0  0  0  0  0  0  0  0  0  0  0  0
    4.2810   -2.1370   -0.3760 N   0  0  0  0  0  0  0  0  0  0  0  0
    2.9850   -3.4860    0.8500 N   0  0  0  0  0  0  0  0  0  0  0  0
    3.2810   -1.4580    0.1820 N   0  0  0  0  0  0  0  0  0  0  0  0
    4.9410   -4.5340   -0.3110 C   0  0  0  0  0  0  0  0  0  0  0  0
    2.5210   -2.2910    0.9160 C   0  0  0  0  0  0  0  0  0  0  0  0
    4.5760   -5.7460    0.2540 N   0  0  0  0  0  0  0  0  0  0  0  0
    3.0740   -0.0410    0.0190 C   0  0  0  0  0  0  0  0  0  0  0  0
    5.9190   -4.5050   -1.0600 O   0  0  0  0  0  0  0  0  0  0  0  0
    4.1860    0.7940   -0.1000 C   0  0  0  0  0  0  0  0  0  0  0  0
    1.7750    0.4730   -0.0120 C   0  0  0  0  0  0  0  0  0  0  0  0
    5.1970   -7.0100    0.1230 C   0  0  0  0  0  0  0  0  0  0  0  0
    3.9910    2.1640   -0.2400 C   0  0  0  0  0  0  0  0  0  0  0  0
    1.5970    1.8460   -0.1520 C   0  0  0  0  0  0  0  0  0  0  0  0
    2.7000    2.6940   -0.2680 C   0  0  0  0  0  0  0  0  0  0  0  0
    4.3730   -8.1330    0.2050 C   0  0  0  0  0  0  0  0  0  0  0  0
    6.5770   -7.1530   -0.0490 C   0  0  0  0  0  0  0  0  0  0  0  0
    2.5000    4.1860   -0.4100 C   0  0  0  0  0  0  0  0  0  0  0  0
    4.9310   -9.4030    0.1030 C   0  0  0  0  0  0  0  0  0  0  0  0
    7.1250   -8.4270   -0.1520 C   0  0  0  0  0  0  0  0  0  0  0  0
    6.3050   -9.5510   -0.0770 C   0  0  0  0  0  0  0  0  0  0  0  0
  1  2  2  0  0  0  0
  1  3  1  0  0  0  0
  1  5  1  0  0  0  0
  2  4  1  0  0  0  0
  3  6  2  0  0  0  0
  4  6  1  0  0  0  0
  4  8  1  0  0  0  0
  5  7  1  0  0  0  0
  5  9  2  0  0  0  0
  7 12  1  0  0  0  0
  8 10  2  0  0  0  0
  8 11  1  0  0  0  0
 10 13  1  0  0  0  0
 11 14  2  0  0  0  0
 12 16  2  0  0  0  0
 12 17  1  0  0  0  0
 13 15  2  0  0  0  0
 14 15  1  0  0  0  0
 15 18  1  0  0  0  0
 16 19  1  0  0  0  0
 17 20  2  0  0  0  0
 19 21  2  0  0  0  0
 20 21  1  0  0  0  0
M  END
>  <NScode>
NS-017312109-0000

>  <a_acc>
3

>  <a_don>
1

>  <chiral>
0

>  <opr_nrot>
3

>  <Weight>
278.315

>  <druglike>
1

>  <lip_druglike>
1

>  <lip_violation>
0

>  <logS>
-3.97698

$$$$
