NS-023341647-0000
  MOE2022           3D

 15 15  0  0  0  0  0  0  0  0999 V2000
    2.6550    4.3300    0.7230 C   0  0  0  0  0  0  0  0  0  0  0  0
    3.2020    5.0710   -0.4750 C   0  0  0  0  0  0  0  0  0  0  0  0
    4.6860    5.2870   -0.6300 C   0  0  0  0  0  0  0  0  0  0  0  0
    2.4580    5.4320   -1.3380 O   0  0  0  0  0  0  0  0  0  0  0  0
    2.7910    2.8200    0.6030 C   0  0  0  0  0  0  0  0  0  0  0  0
    3.8640    2.1260    1.1780 C   0  0  0  0  0  0  0  0  0  0  0  0
    4.0200    0.7480    1.0820 C   0  0  0  0  0  0  0  0  0  0  0  0
    3.0680    0.0110    0.3750 C   0  0  0  0  0  0  0  0  0  0  0  0
    2.0010    0.6990   -0.2180 C   0  0  0  0  0  0  0  0  0  0  0  0
    1.8460    2.0860   -0.1140 C   0  0  0  0  0  0  0  0  0  0  0  0
    1.0310   -0.0450   -0.9560 N   0  3  0  0  0  0  0  0  0  0  0  0
   -0.0830   -0.2090   -0.4890 O   0  5  0  0  0  0  0  0  0  0  0  0
    1.3040   -0.4790   -2.0610 O   0  0  0  0  0  0  0  0  0  0  0  0
    4.8080    2.8190    1.8590 F   0  0  0  0  0  0  0  0  0  0  0  0
    3.2400   -1.7110    0.2720 Cl  0  0  0  0  0  0  0  0  0  0  0  0
  1  2  1  0  0  0  0
  1  5  1  0  0  0  0
  2  3  1  0  0  0  0
  2  4  2  0  0  0  0
  5  6  1  0  0  0  0
  5 10  2  0  0  0  0
  6  7  2  0  0  0  0
  6 14  1  0  0  0  0
  7  8  1  0  0  0  0
  8  9  2  0  0  0  0
  8 15  1  0  0  0  0
  9 10  1  0  0  0  0
  9 11  1  0  0  0  0
 11 12  1  0  0  0  0
 11 13  2  0  0  0  0
M  CHG  1  11   1
M  CHG  1  12  -1
M  END
>  <NScode>
NS-023341647-0000

>  <a_acc>
1

>  <a_don>
0

>  <chiral>
0

>  <opr_nrot>
3

>  <Weight>
231.61

>  <druglike>
1

>  <lip_druglike>
1

>  <lip_violation>
0

>  <logS>
-3.57812

$$$$
