NS-014118978-0000
  MOE2022           3D

 27 29  0  0  0  0  0  0  0  0999 V2000
   -4.8210   -0.1570   -0.1940 C   0  0  0  0  0  0  0  0  0  0  0  0
   -4.8850   -1.4580   -0.4620 N   0  0  0  0  0  0  0  0  0  0  0  0
   -3.5780    0.5980   -0.0470 C   0  0  0  0  0  0  0  0  0  0  0  0
   -6.1260    0.3800   -0.0750 C   0  0  0  0  0  0  0  0  0  0  0  0
   -6.2080   -1.7560   -0.5140 N   0  0  0  0  0  0  0  0  0  0  0  0
    0.0880   -0.1410   -0.2130 C   0  0  0  0  0  0  0  0  0  0  0  0
   -2.4000   -0.0810   -0.2000 N   0  0  0  0  0  0  0  0  0  0  0  0
   -1.0730    0.5670   -0.0670 N   0  0  0  0  0  0  0  0  0  0  0  0
   -6.9980   -0.6620   -0.2840 C   0  0  0  0  0  0  0  0  0  0  0  0
    1.3840    0.5340   -0.0580 C   0  0  0  0  0  0  0  0  0  0  0  0
   -3.4890    1.8120    0.2080 O   0  0  0  0  0  0  0  0  0  0  0  0
   -0.0270   -1.3430   -0.4750 O   0  0  0  0  0  0  0  0  0  0  0  0
    1.4880    1.8950    0.2960 C   0  0  0  0  0  0  0  0  0  0  0  0
    2.5690   -0.1940   -0.2660 C   0  0  0  0  0  0  0  0  0  0  0  0
    3.8890    1.7550    0.2250 C   0  0  0  0  0  0  0  0  0  0  0  0
    2.7320    2.4990    0.4350 C   0  0  0  0  0  0  0  0  0  0  0  0
    3.8150    0.4070   -0.1270 C   0  0  0  0  0  0  0  0  0  0  0  0
   -6.6540    1.6600    0.1910 C   0  0  0  0  0  0  0  0  0  0  0  0
    5.0870    2.4050    0.3800 O   0  0  0  0  0  0  0  0  0  0  0  0
    6.3850    1.7880    0.2310 C   0  0  0  0  0  0  0  0  0  0  0  0
   -8.3940   -0.5220   -0.2470 C   0  0  0  0  0  0  0  0  0  0  0  0
    7.5110    2.7910    0.5020 C   0  0  0  0  0  0  0  0  0  0  0  0
    8.9430    2.2340    0.3680 C   0  0  0  0  0  0  0  0  0  0  0  0
   -8.0290    1.8300    0.2330 C   0  0  0  0  0  0  0  0  0  0  0  0
    9.2480    1.7580   -1.0590 C   0  0  0  0  0  0  0  0  0  0  0  0
    9.2160    1.0940    1.3600 C   0  0  0  0  0  0  0  0  0  0  0  0
   -8.9020    0.7370    0.0140 C   0  0  0  0  0  0  0  0  0  0  0  0
  1  2  2  0  0  0  0
  1  3  1  0  0  0  0
  1  4  1  0  0  0  0
  2  5  1  0  0  0  0
  3  7  1  0  0  0  0
  3 11  2  0  0  0  0
  4  9  2  0  0  0  0
  4 18  1  0  0  0  0
  5  9  1  0  0  0  0
  6  8  1  0  0  0  0
  6 10  1  0  0  0  0
  6 12  2  0  0  0  0
  7  8  1  0  0  0  0
  9 21  1  0  0  0  0
 10 13  2  0  0  0  0
 10 14  1  0  0  0  0
 13 16  1  0  0  0  0
 14 17  2  0  0  0  0
 15 16  2  0  0  0  0
 15 17  1  0  0  0  0
 15 19  1  0  0  0  0
 18 24  2  0  0  0  0
 19 20  1  0  0  0  0
 20 22  1  0  0  0  0
 21 27  2  0  0  0  0
 22 23  1  0  0  0  0
 23 25  1  0  0  0  0
 23 26  1  0  0  0  0
 24 27  1  0  0  0  0
M  END
>  <NScode>
NS-014118978-0000

>  <a_acc>
5

>  <a_don>
4

>  <chiral>
0

>  <opr_nrot>
7

>  <Weight>
366.42099

>  <druglike>
1

>  <lip_druglike>
1

>  <lip_violation>
0

>  <logS>
-5.62884

$$$$
