NS-013193461-0001
  MOE2022           3D

 28 31  0  0  0  0  0  0  0  0999 V2000
    7.2270   -0.8550   -0.0830 C   0  0  0  0  0  0  0  0  0  0  0  0
    7.4000    0.4510   -0.1170 N   0  0  0  0  0  0  0  0  0  0  0  0
    6.0530   -1.4460   -0.1950 N   0  0  0  0  0  0  0  0  0  0  0  0
    6.3070    1.1620   -0.2770 C   0  0  0  0  0  0  0  0  0  0  0  0
    5.0940    0.6750   -0.3860 N   0  0  0  0  0  0  0  0  0  0  0  0
    5.0360   -0.6380   -0.3460 C   0  0  0  0  0  0  0  0  0  0  0  0
    8.3470   -1.6500    0.0780 N   0  0  0  0  0  0  0  0  0  0  0  0
    6.3630    2.5300   -0.3160 N   0  0  0  0  0  0  0  0  0  0  0  0
    3.8380   -1.2490   -0.4620 N   0  0  0  0  0  0  0  0  0  0  0  0
   10.5790   -3.2790    0.9930 O   0  0  0  0  0  0  0  0  0  0  0  0
    7.5090    3.3510   -0.3090 C   0  0  0  0  0  0  0  0  0  0  0  0
    2.6100   -0.5550   -0.1170 C   0  0  0  0  0  0  0  0  0  0  0  0
    9.6930    5.0230   -0.2730 C   0  0  0  0  0  0  0  0  0  0  0  0
   10.7640    5.8400   -0.2520 F   0  0  0  0  0  0  0  0  0  0  0  0
    8.6460    3.0170   -1.0570 C   0  0  0  0  0  0  0  0  0  0  0  0
    7.4620    4.5280    0.4460 C   0  0  0  0  0  0  0  0  0  0  0  0
    9.7510    3.8620   -1.0360 C   0  0  0  0  0  0  0  0  0  0  0  0
    8.5680    5.3730    0.4660 C   0  0  0  0  0  0  0  0  0  0  0  0
    8.1810   -3.0740    0.4550 C   0  0  0  0  0  0  0  0  0  0  0  0
    9.5900   -1.0500    0.6220 C   0  0  0  0  0  0  0  0  0  0  0  0
    1.4330   -1.5050   -0.0560 C   0  0  0  0  0  0  0  0  0  0  0  0
    9.4800   -3.8950    0.3210 C   0  0  0  0  0  0  0  0  0  0  0  0
   10.8210   -1.9690    0.4790 C   0  0  0  0  0  0  0  0  0  0  0  0
    0.8070   -1.7840    1.1590 C   0  0  0  0  0  0  0  0  0  0  0  0
    0.9670   -2.1130   -1.2220 C   0  0  0  0  0  0  0  0  0  0  0  0
   -0.1160   -2.9860   -1.1750 C   0  0  0  0  0  0  0  0  0  0  0  0
   -0.2770   -2.6570    1.2060 C   0  0  0  0  0  0  0  0  0  0  0  0
   -0.7390   -3.2570    0.0390 C   0  0  0  0  0  0  0  0  0  0  0  0
  1  2  2  0  0  0  0
  1  3  1  0  0  0  0
  1  7  1  0  0  0  0
  2  4  1  0  0  0  0
  3  6  2  0  0  0  0
  4  5  2  0  0  0  0
  4  8  1  0  0  0  0
  5  6  1  0  0  0  0
  6  9  1  0  0  0  0
  7 19  1  0  0  0  0
  7 20  1  0  0  0  0
  8 11  1  0  0  0  0
  9 12  1  0  0  0  0
 10 22  1  0  0  0  0
 10 23  1  0  0  0  0
 11 15  2  0  0  0  0
 11 16  1  0  0  0  0
 12 21  1  0  0  0  0
 13 14  1  0  0  0  0
 13 17  2  0  0  0  0
 13 18  1  0  0  0  0
 15 17  1  0  0  0  0
 16 18  2  0  0  0  0
 19 22  1  0  0  0  0
 20 23  1  0  0  0  0
 21 24  1  0  0  0  0
 21 25  2  0  0  0  0
 24 27  2  0  0  0  0
 25 26  1  0  0  0  0
 26 28  2  0  0  0  0
 27 28  1  0  0  0  0
M  END
>  <NScode>
NS-013193461-0001

>  <a_acc>
4

>  <a_don>
2

>  <chiral>
0

>  <opr_nrot>
8

>  <Weight>
380.427

>  <druglike>
1

>  <lip_druglike>
1

>  <lip_violation>
0

>  <logS>
-5.95397

$$$$
