NS-017415155-0000
  MOE2022           3D

 29 32  0  0  0  0  0  0  0  0999 V2000
   -2.7720    0.0970    0.3730 N   0  0  0  0  0  0  0  0  0  0  0  0
   -1.8030    1.0550    0.5190 C   0  0  0  0  0  0  0  0  0  0  0  0
    0.8500   -2.6120   -0.1480 C   0  0  0  0  0  0  0  0  0  0  0  0
    1.9650   -3.3570   -0.0030 N   0  0  0  0  0  0  0  0  0  0  0  0
   -4.0010    0.6830    0.2900 C   0  0  0  0  0  0  0  0  0  0  0  0
    1.1230   -1.3610    0.2140 N   0  3  0  0  0  0  0  0  0  0  0  0
   -2.3660    2.2760    0.5780 N   0  0  0  0  0  0  0  0  0  0  0  0
   -3.8020    2.1930    0.4200 C   0  0  0  0  0  0  0  0  0  0  0  0
    3.0000   -2.5170    0.4530 C   0  0  0  0  0  0  0  0  0  0  0  0
    2.4430   -1.2600    0.5880 C   0  0  0  0  0  0  0  0  0  0  0  0
    1.9390   -4.7960   -0.3560 C   0  0  0  0  0  0  0  0  0  0  0  0
   -0.6030    0.8160    0.5530 O   0  0  0  0  0  0  0  0  0  0  0  0
   -5.0160    0.0360    0.1250 O   0  0  0  0  0  0  0  0  0  0  0  0
   -0.6670   -3.2030   -0.7060 S   0  0  0  0  0  0  0  0  0  0  0  0
   -2.4990   -1.3340    0.3120 C   0  0  0  0  0  0  0  0  0  0  0  0
    3.1030   -5.6640    0.1350 C   0  0  0  0  0  0  0  0  0  0  0  0
   -1.7360   -1.7440   -0.9570 C   0  0  0  0  0  0  0  0  0  0  0  0
   -4.4890    2.7700    1.6640 C   0  0  0  0  0  0  0  0  0  0  0  0
   -4.2190    2.9490   -0.8500 C   0  0  0  0  0  0  0  0  0  0  0  0
    2.8220   -7.1360   -0.0780 C   0  0  0  0  0  0  0  0  0  0  0  0
    4.3500   -2.7260    0.7580 C   0  0  0  0  0  0  0  0  0  0  0  0
    3.1730   -0.1600    1.0310 C   0  0  0  0  0  0  0  0  0  0  0  0
    3.1880   -7.7600   -1.2870 C   0  0  0  0  0  0  0  0  0  0  0  0
    2.1700   -7.8820    0.9230 C   0  0  0  0  0  0  0  0  0  0  0  0
    5.1000   -1.6380    1.2010 C   0  0  0  0  0  0  0  0  0  0  0  0
    4.5160   -0.3610    1.3380 C   0  0  0  0  0  0  0  0  0  0  0  0
    1.8880   -9.2430    0.7170 C   0  0  0  0  0  0  0  0  0  0  0  0
    2.9050   -9.1220   -1.4910 C   0  0  0  0  0  0  0  0  0  0  0  0
    2.2550   -9.8640   -0.4890 C   0  0  0  0  0  0  0  0  0  0  0  0
  1  2  1  0  0  0  0
  1  5  1  0  0  0  0
  1 15  1  0  0  0  0
  2  7  1  0  0  0  0
  2 12  2  0  0  0  0
  3  4  1  0  0  0  0
  3  6  2  0  0  0  0
  3 14  1  0  0  0  0
  4  9  1  0  0  0  0
  4 11  1  0  0  0  0
  5  8  1  0  0  0  0
  5 13  2  0  0  0  0
  6 10  1  0  0  0  0
  7  8  1  0  0  0  0
  8 18  1  0  0  0  0
  8 19  1  0  0  0  0
  9 10  2  0  0  0  0
  9 21  1  0  0  0  0
 10 22  1  0  0  0  0
 11 16  1  0  0  0  0
 14 17  1  0  0  0  0
 15 17  1  0  0  0  0
 16 20  1  0  0  0  0
 20 23  1  0  0  0  0
 20 24  2  0  0  0  0
 21 25  2  0  0  0  0
 22 26  2  0  0  0  0
 23 28  2  0  0  0  0
 24 27  1  0  0  0  0
 25 26  1  0  0  0  0
 27 29  2  0  0  0  0
 28 29  1  0  0  0  0
M  CHG  1   6   1
M  END
>  <NScode>
NS-017415155-0000

>  <a_acc>
3

>  <a_don>
1

>  <chiral>
0

>  <opr_nrot>
7

>  <Weight>
408.526

>  <druglike>
1

>  <lip_druglike>
1

>  <lip_violation>
0

>  <logS>
-6.2494702

$$$$
