NS-019771763-0000
  MOE2022           3D

 24 27  0  0  1  0  0  0  0  0999 V2000
   -0.1780   -0.4380   -1.4900 C   0  0  0  0  0  0  0  0  0  0  0  0
   -1.4350    2.0750   -0.0180 C   0  0  0  0  0  0  0  0  0  0  0  0
   -0.3020    0.8370   -1.8680 N   0  0  0  0  0  0  0  0  0  0  0  0
    0.0340   -0.8930   -0.0380 C   0  0  3  0  0  0  0  0  0  0  0  0
   -0.3420    2.0730   -1.0880 C   0  0  3  0  0  0  0  0  0  0  0  0
    1.3080   -1.7290    0.1260 C   0  0  0  0  0  0  0  0  0  0  0  0
   -1.2750    2.6980    1.2440 C   0  0  0  0  0  0  0  0  0  0  0  0
    0.1630    3.5780    1.7060 S   0  0  0  0  0  0  0  0  0  0  0  0
   -2.6620    1.4740   -0.3140 C   0  0  0  0  0  0  0  0  0  0  0  0
   -0.2850   -1.2360   -2.4110 O   0  0  0  0  0  0  0  0  0  0  0  0
    1.2630   -3.0670    0.5430 C   0  0  0  0  0  0  0  0  0  0  0  0
   -2.3090    2.6440    2.1920 C   0  0  0  0  0  0  0  0  0  0  0  0
    1.0670    2.4610   -0.6210 C   0  0  0  0  0  0  0  0  0  0  0  0
   -3.6700    1.4500    0.6390 C   0  0  0  0  0  0  0  0  0  0  0  0
    1.0780    3.7670    0.1540 C   0  0  0  0  0  0  0  0  0  0  0  0
   -3.5120    2.0190    1.8930 C   0  0  0  0  0  0  0  0  0  0  0  0
   -4.8350    0.8530    0.3390 F   0  0  0  0  0  0  0  0  0  0  0  0
   -1.2170   -1.5920    0.5470 C   0  0  0  0  0  0  0  0  0  0  0  0
    2.5450   -1.1510   -0.1640 C   0  0  0  0  0  0  0  0  0  0  0  0
   -1.2650   -3.0870    0.2200 C   0  0  0  0  0  0  0  0  0  0  0  0
   -0.0500   -3.7590    0.8630 C   0  0  0  0  0  0  0  0  0  0  0  0
    2.4470   -3.7890    0.6870 C   0  0  0  0  0  0  0  0  0  0  0  0
    3.7210   -1.8780   -0.0230 C   0  0  0  0  0  0  0  0  0  0  0  0
    3.6730   -3.1970    0.4070 C   0  0  0  0  0  0  0  0  0  0  0  0
  1  3  1  0  0  0  0
  1  4  1  0  0  0  0
  1 10  2  0  0  0  0
  2  5  1  0  0  0  0
  2  7  2  0  0  0  0
  2  9  1  0  0  0  0
  3  5  1  0  0  0  0
  4  6  1  0  0  0  0
  4 18  1  0  0  0  0
  5 13  1  0  0  0  0
  6 11  2  0  0  0  0
  6 19  1  0  0  0  0
  7  8  1  0  0  0  0
  7 12  1  0  0  0  0
  8 15  1  0  0  0  0
  9 14  2  0  0  0  0
 11 21  1  0  0  0  0
 11 22  1  0  0  0  0
 12 16  2  0  0  0  0
 13 15  1  0  0  0  0
 14 16  1  0  0  0  0
 14 17  1  0  0  0  0
 18 20  1  0  0  0  0
 19 23  2  0  0  0  0
 20 21  1  0  0  0  0
 22 24  2  0  0  0  0
 23 24  1  0  0  0  0
M  END
>  <NScode>
NS-019771763-0000

>  <a_acc>
1

>  <a_don>
1

>  <chiral>
2

>  <opr_nrot>
4

>  <Weight>
341.44998

>  <druglike>
1

>  <lip_druglike>
1

>  <lip_violation>
0

>  <logS>
-6.11624

$$$$
