NS-012618390-0000
  MOE2022           3D

 24 27  0  0  0  0  0  0  0  0999 V2000
   -2.2470    1.4210    0.0050 C   0  0  0  0  0  0  0  0  0  0  0  0
   -1.7850    2.7120   -0.0010 C   0  0  0  0  0  0  0  0  0  0  0  0
   -1.2800    0.3570    0.0120 C   0  0  0  0  0  0  0  0  0  0  0  0
   -0.4400    3.0440    0.0030 N   0  0  0  0  0  0  0  0  0  0  0  0
    0.0930    0.7260    0.0090 N   0  0  0  0  0  0  0  0  0  0  0  0
   -3.0630    3.8670   -0.0100 S   0  0  0  0  0  0  0  0  0  0  0  0
   -3.6660    1.3550    0.0040 C   0  0  0  0  0  0  0  0  0  0  0  0
   -4.2400    2.5970   -0.0030 C   0  0  0  0  0  0  0  0  0  0  0  0
    0.4290    2.1010    0.0080 C   0  0  0  0  0  0  0  0  0  0  0  0
    1.0790   -0.3020    0.0080 N   0  0  0  0  0  0  0  0  0  0  0  0
   -1.5650   -0.8510    0.0220 O   0  0  0  0  0  0  0  0  0  0  0  0
    2.3480   -0.1380   -0.0180 C   0  0  0  0  0  0  0  0  0  0  0  0
    3.2790   -1.2540   -0.0160 C   0  0  0  0  0  0  0  0  0  0  0  0
    5.1040   -3.3770   -0.0150 C   0  0  0  0  0  0  0  0  0  0  0  0
   -4.4550    0.0490    0.0160 C   0  0  0  0  0  0  0  0  0  0  0  0
   -5.7190    2.9100   -0.0030 C   0  0  0  0  0  0  0  0  0  0  0  0
    2.8320   -2.5880    0.0010 C   0  0  0  0  0  0  0  0  0  0  0  0
    4.6640   -1.0130   -0.0320 C   0  0  0  0  0  0  0  0  0  0  0  0
    3.7340   -3.6450    0.0020 C   0  0  0  0  0  0  0  0  0  0  0  0
    5.5700   -2.0660   -0.0310 C   0  0  0  0  0  0  0  0  0  0  0  0
    6.0450   -4.3770   -0.0160 O   0  0  0  0  0  0  0  0  0  0  0  0
    5.7450   -5.7910   -0.0200 C   0  0  0  0  0  0  0  0  0  0  0  0
   -6.0010    0.1620   -0.0090 C   0  0  0  0  0  0  0  0  0  0  0  0
   -6.5580    1.6110   -0.0070 C   0  0  0  0  0  0  0  0  0  0  0  0
  1  2  2  0  0  0  0
  1  3  1  0  0  0  0
  1  7  1  0  0  0  0
  2  4  1  0  0  0  0
  2  6  1  0  0  0  0
  3  5  1  0  0  0  0
  3 11  2  0  0  0  0
  4  9  2  0  0  0  0
  5  9  1  0  0  0  0
  5 10  1  0  0  0  0
  6  8  1  0  0  0  0
  7  8  2  0  0  0  0
  7 15  1  0  0  0  0
  8 16  1  0  0  0  0
 10 12  2  0  0  0  0
 12 13  1  0  0  0  0
 13 17  2  0  0  0  0
 13 18  1  0  0  0  0
 14 19  2  0  0  0  0
 14 20  1  0  0  0  0
 14 21  1  0  0  0  0
 15 23  1  0  0  0  0
 16 24  1  0  0  0  0
 17 19  1  0  0  0  0
 18 20  2  0  0  0  0
 21 22  1  0  0  0  0
 23 24  1  0  0  0  0
M  END
>  <NScode>
NS-012618390-0000

>  <a_acc>
4

>  <a_don>
0

>  <chiral>
0

>  <opr_nrot>
3

>  <Weight>
339.41901

>  <druglike>
1

>  <lip_druglike>
1

>  <lip_violation>
0

>  <logS>
-5.09308

$$$$
