NS-006483476-0000
  MOE2022           3D

 24 25  0  0  1  0  0  0  0  0999 V2000
    1.0740   -4.9610   -0.6450 C   0  0  0  0  0  0  0  0  0  0  0  0
    0.2000   -5.3990    0.3500 C   0  0  0  0  0  0  0  0  0  0  0  0
    0.0130   -4.6430    1.5050 C   0  0  0  0  0  0  0  0  0  0  0  0
    0.7030   -3.4460    1.6740 C   0  0  0  0  0  0  0  0  0  0  0  0
    1.5740   -3.0030    0.6840 C   0  0  0  0  0  0  0  0  0  0  0  0
    1.7490   -3.7510   -0.4740 C   0  0  0  0  0  0  0  0  0  0  0  0
    1.2920   -5.7970   -1.8960 C   0  0  0  0  0  0  0  0  0  0  0  0
    2.6260   -5.6590   -2.4230 O   0  0  0  0  0  0  0  0  0  0  0  0
    3.6390   -6.1630   -1.7120 C   0  0  0  0  0  0  0  0  0  0  0  0
    4.7800   -5.4710   -1.8740 N   0  0  0  0  0  0  0  0  0  0  0  0
    3.5230   -7.1330   -0.9730 O   0  0  0  0  0  0  0  0  0  0  0  0
    5.3200   -4.2930    0.2390 C   0  0  3  0  0  0  0  0  0  0  0  0
    5.1630   -2.8820   -0.3530 C   0  0  0  0  0  0  0  0  0  0  0  0
    6.2650   -4.3400    1.4610 C   0  0  0  0  0  0  0  0  0  0  0  0
    5.0400   -1.9370    0.4570 O   0  5  0  0  0  0  0  0  0  0  0  0
    7.7450   -4.2810    1.1230 C   0  0  0  0  0  0  0  0  0  0  0  0
    5.0870   -2.7570   -1.5970 O   0  0  0  0  0  0  0  0  0  0  0  0
    5.7420   -5.3530   -0.7940 C   0  0  0  0  0  0  0  0  0  0  0  0
   10.4680   -4.1650    0.4810 C   0  0  0  0  0  0  0  0  0  0  0  0
    8.3150   -3.0880    0.6900 C   0  0  0  0  0  0  0  0  0  0  0  0
    8.5440   -5.4190    1.2300 C   0  0  0  0  0  0  0  0  0  0  0  0
    9.8970   -5.3610    0.9100 C   0  0  0  0  0  0  0  0  0  0  0  0
    9.6680   -3.0300    0.3680 C   0  0  0  0  0  0  0  0  0  0  0  0
   11.9340   -4.1020    0.1180 C   0  0  0  0  0  0  0  0  0  0  0  0
  1  2  1  0  0  0  0
  1  6  2  0  0  0  0
  1  7  1  0  0  0  0
  2  3  2  0  0  0  0
  3  4  1  0  0  0  0
  4  5  2  0  0  0  0
  5  6  1  0  0  0  0
  7  8  1  0  0  0  0
  8  9  1  0  0  0  0
  9 10  1  0  0  0  0
  9 11  2  0  0  0  0
 10 18  1  0  0  0  0
 12 13  1  0  0  0  0
 12 14  1  0  0  0  0
 12 18  1  0  0  0  0
 13 15  1  0  0  0  0
 13 17  2  0  0  0  0
 14 16  1  0  0  0  0
 16 20  1  0  0  0  0
 16 21  2  0  0  0  0
 19 22  2  0  0  0  0
 19 23  1  0  0  0  0
 19 24  1  0  0  0  0
 20 23  2  0  0  0  0
 21 22  1  0  0  0  0
M  CHG  1  15  -1
M  END
>  <NScode>
NS-006483476-0000

>  <a_acc>
2

>  <a_don>
3

>  <chiral>
1

>  <opr_nrot>
7

>  <Weight>
327.38

>  <druglike>
1

>  <lip_druglike>
1

>  <lip_violation>
0

>  <logS>
-3.66344

$$$$
