NS-023531766-0000
  MOE2022           3D

 21 23  0  0  1  0  0  0  0  0999 V2000
    1.1970   -4.9770   -0.9130 C   0  0  0  0  0  0  0  0  0  0  0  0
    0.1840   -4.1320   -0.1270 C   0  0  0  0  0  0  0  0  0  0  0  0
    0.6800   -2.7060    0.2210 C   0  0  2  0  0  0  0  0  0  0  0  0
    1.9210   -2.7810    1.1340 C   0  0  0  0  0  0  0  0  0  0  0  0
   -0.4570   -1.8490    0.8520 C   0  0  2  0  0  0  0  0  0  0  0  0
   -1.5950   -1.7100   -0.0430 N   0  0  0  0  0  0  0  0  0  0  0  0
   -1.7490   -0.4200   -0.4130 C   0  0  0  0  0  0  0  0  0  0  0  0
   -2.5560   -0.0430   -1.2430 O   0  0  0  0  0  0  0  0  0  0  0  0
   -0.8550    0.3770    0.2800 N   0  0  0  0  0  0  0  0  0  0  0  0
   -0.0920   -0.3980    1.1170 C   0  0  0  0  0  0  0  0  0  0  0  0
    0.6700    0.0640    1.9420 O   0  0  0  0  0  0  0  0  0  0  0  0
   -0.7750    1.7860    0.1610 C   0  0  0  0  0  0  0  0  0  0  0  0
   -1.8460    2.5330    0.6080 C   0  0  0  0  0  0  0  0  0  0  0  0
   -1.8040    3.9360    0.5160 C   0  0  0  0  0  0  0  0  0  0  0  0
   -0.7030    4.5630   -0.0210 C   0  0  0  0  0  0  0  0  0  0  0  0
    0.4060    3.8140   -0.4950 C   0  0  0  0  0  0  0  0  0  0  0  0
    1.5380    4.4580   -1.0560 C   0  0  0  0  0  0  0  0  0  0  0  0
    2.6040    3.7270   -1.5220 C   0  0  0  0  0  0  0  0  0  0  0  0
    2.5840    2.3200   -1.4470 C   0  0  0  0  0  0  0  0  0  0  0  0
    1.5000    1.6690   -0.9080 C   0  0  0  0  0  0  0  0  0  0  0  0
    0.3830    2.3980   -0.4120 C   0  0  0  0  0  0  0  0  0  0  0  0
  1  2  1  0  0  0  0
  2  3  1  0  0  0  0
  3  4  1  0  0  0  0
  3  5  1  0  0  0  0
  5  6  1  0  0  0  0
  5 10  1  0  0  0  0
  6  7  1  0  0  0  0
  7  8  2  0  0  0  0
  7  9  1  0  0  0  0
  9 10  1  0  0  0  0
  9 12  1  0  0  0  0
 10 11  2  0  0  0  0
 12 13  1  0  0  0  0
 12 21  2  0  0  0  0
 13 14  2  0  0  0  0
 14 15  1  0  0  0  0
 15 16  2  0  0  0  0
 16 17  1  0  0  0  0
 16 21  1  0  0  0  0
 17 18  2  0  0  0  0
 18 19  1  0  0  0  0
 19 20  2  0  0  0  0
 20 21  1  0  0  0  0
M  END
>  <NScode>
NS-023531766-0000

>  <a_acc>
2

>  <a_don>
1

>  <chiral>
2

>  <opr_nrot>
3

>  <Weight>
282.34299

>  <druglike>
1

>  <lip_druglike>
1

>  <lip_violation>
0

>  <logS>
-4.9822001

$$$$
