NS-014050980-0000
  MOE2022           3D

 23 24  0  0  0  0  0  0  0  0999 V2000
   -2.5120    0.0170    0.0560 C   0  0  0  0  0  0  0  0  0  0  0  0
   -2.9630   -1.2810    0.1760 C   0  0  0  0  0  0  0  0  0  0  0  0
   -4.3600   -1.2820   -0.0710 C   0  0  0  0  0  0  0  0  0  0  0  0
   -3.6010    0.7850   -0.2680 N   0  0  0  0  0  0  0  0  0  0  0  0
   -4.7110    0.0290   -0.3460 C   0  0  0  0  0  0  0  0  0  0  0  0
   -1.2350    0.6930    0.1920 C   0  0  0  0  0  0  0  0  0  0  0  0
   -5.3090   -2.4010   -0.0510 C   0  0  0  0  0  0  0  0  0  0  0  0
   -1.0900    1.8900   -0.0190 O   0  0  0  0  0  0  0  0  0  0  0  0
   -6.4700   -2.2610   -0.3720 O   0  0  0  0  0  0  0  0  0  0  0  0
    5.5190    1.2200    0.1050 C   0  0  0  0  0  0  0  0  0  0  0  0
   -2.0930   -2.4800    0.5080 C   0  0  0  0  0  0  0  0  0  0  0  0
    6.6550    0.4790    0.4200 C   0  0  0  0  0  0  0  0  0  0  0  0
   -0.1400   -0.0080    0.5680 O   0  0  0  0  0  0  0  0  0  0  0  0
   -6.0490    0.6560   -0.6850 C   0  0  0  0  0  0  0  0  0  0  0  0
    4.3140    0.5650   -0.1240 C   0  0  0  0  0  0  0  0  0  0  0  0
    8.3020    1.3560    0.7350 Br  0  0  0  0  0  0  0  0  0  0  0  0
    3.2250    1.3520   -0.4300 O   0  0  0  0  0  0  0  0  0  0  0  0
    5.3680   -1.5620    0.2690 C   0  0  0  0  0  0  0  0  0  0  0  0
   -4.9350   -3.8010    0.3690 C   0  0  0  0  0  0  0  0  0  0  0  0
    6.5790   -0.9110    0.5020 C   0  0  0  0  0  0  0  0  0  0  0  0
    4.2290   -0.8270   -0.0460 C   0  0  0  0  0  0  0  0  0  0  0  0
    1.1730    0.6040    0.7330 C   0  0  0  0  0  0  0  0  0  0  0  0
    1.8570    0.9040   -0.6040 C   0  0  0  0  0  0  0  0  0  0  0  0
  1  2  2  0  0  0  0
  1  4  1  0  0  0  0
  1  6  1  0  0  0  0
  2  3  1  0  0  0  0
  2 11  1  0  0  0  0
  3  5  2  0  0  0  0
  3  7  1  0  0  0  0
  4  5  1  0  0  0  0
  5 14  1  0  0  0  0
  6  8  2  0  0  0  0
  6 13  1  0  0  0  0
  7  9  2  0  0  0  0
  7 19  1  0  0  0  0
 10 12  2  0  0  0  0
 10 15  1  0  0  0  0
 12 16  1  0  0  0  0
 12 20  1  0  0  0  0
 13 22  1  0  0  0  0
 15 17  1  0  0  0  0
 15 21  2  0  0  0  0
 17 23  1  0  0  0  0
 18 20  2  0  0  0  0
 18 21  1  0  0  0  0
 22 23  1  0  0  0  0
M  END
>  <NScode>
NS-014050980-0000

>  <a_acc>
3

>  <a_don>
1

>  <chiral>
0

>  <opr_nrot>
6

>  <Weight>
380.23801

>  <druglike>
1

>  <lip_druglike>
1

>  <lip_violation>
0

>  <logS>
-4.0839901

$$$$
