NS-012499244-0000
  MOE2022           3D

 22 24  0  0  0  0  0  0  0  0999 V2000
    6.2240   -4.5820    0.0970 C   0  0  0  0  0  0  0  0  0  0  0  0
    7.0780   -5.6760    0.0880 C   0  0  0  0  0  0  0  0  0  0  0  0
    7.0610   -3.0680    0.2310 S   0  0  0  0  0  0  0  0  0  0  0  0
    8.4270   -5.2450    0.1970 C   0  0  0  0  0  0  0  0  0  0  0  0
    4.8120   -4.6830    0.0080 N   0  0  0  0  0  0  0  0  0  0  0  0
    8.5690   -3.9110    0.2790 C   0  0  0  0  0  0  0  0  0  0  0  0
    3.8390   -3.7250    0.0310 C   0  0  0  0  0  0  0  0  0  0  0  0
    6.6380   -7.0500   -0.0180 C   0  0  0  0  0  0  0  0  0  0  0  0
    4.2190   -2.4300    0.1470 O   0  0  0  0  0  0  0  0  0  0  0  0
    2.6730   -4.0770   -0.0410 O   0  0  0  0  0  0  0  0  0  0  0  0
    5.4650   -7.4100   -0.1090 O   0  0  0  0  0  0  0  0  0  0  0  0
    7.5780   -8.0350   -0.0200 O   0  0  0  0  0  0  0  0  0  0  0  0
    9.7730   -5.9140    0.2410 C   0  0  0  0  0  0  0  0  0  0  0  0
    9.9830   -3.4430    0.3910 C   0  0  0  0  0  0  0  0  0  0  0  0
    3.4740   -1.2620    0.1520 C   0  0  0  0  0  0  0  0  0  0  0  0
   10.7980   -4.7610    0.4380 C   0  0  0  0  0  0  0  0  0  0  0  0
    7.2270   -9.4430   -0.1180 C   0  0  0  0  0  0  0  0  0  0  0  0
    4.0910   -0.1450    0.7070 C   0  0  0  0  0  0  0  0  0  0  0  0
    2.1860   -1.1780   -0.3810 C   0  0  0  0  0  0  0  0  0  0  0  0
    1.5110    0.0390   -0.3400 C   0  0  0  0  0  0  0  0  0  0  0  0
    3.4100    1.0690    0.7430 C   0  0  0  0  0  0  0  0  0  0  0  0
    2.1210    1.1600    0.2210 C   0  0  0  0  0  0  0  0  0  0  0  0
  1  2  2  0  0  0  0
  1  3  1  0  0  0  0
  1  5  1  0  0  0  0
  2  4  1  0  0  0  0
  2  8  1  0  0  0  0
  3  6  1  0  0  0  0
  4  6  2  0  0  0  0
  4 13  1  0  0  0  0
  5  7  1  0  0  0  0
  6 14  1  0  0  0  0
  7  9  1  0  0  0  0
  7 10  2  0  0  0  0
  8 11  2  0  0  0  0
  8 12  1  0  0  0  0
  9 15  1  0  0  0  0
 12 17  1  0  0  0  0
 13 16  1  0  0  0  0
 14 16  1  0  0  0  0
 15 18  1  0  0  0  0
 15 19  2  0  0  0  0
 18 21  2  0  0  0  0
 19 20  1  0  0  0  0
 20 22  2  0  0  0  0
 21 22  1  0  0  0  0
M  END
>  <NScode>
NS-012499244-0000

>  <a_acc>
2

>  <a_don>
1

>  <chiral>
0

>  <opr_nrot>
3

>  <Weight>
317.36499

>  <druglike>
1

>  <lip_druglike>
1

>  <lip_violation>
0

>  <logS>
-4.3164501

$$$$
