NS-023854166-0000(2-methyl-5-oxo-5H-[1,3,4]thiadiazolo[3,2-a]pyrimidin-7-yl)m...
  MOE2022           3D

 33 36  0  0  0  0  0  0  0  0999 V2000
   -5.3670    1.0800    1.4590 N   0  0  0  0  0  0  0  0  0  0  0  0
   -5.6420    0.8370    0.1460 C   0  0  0  0  0  0  0  0  0  0  0  0
   -7.2810    1.2170   -0.1570 S   0  0  0  0  0  0  0  0  0  0  0  0
   -4.0700    0.8340    1.9380 C   0  0  0  0  0  0  0  0  0  0  0  0
   -6.4340    1.5640    2.2220 N   0  0  0  0  0  0  0  0  0  0  0  0
   -4.7590    0.3760   -0.7380 N   0  0  0  0  0  0  0  0  0  0  0  0
   -3.1390    0.3450    0.9920 C   0  0  0  0  0  0  0  0  0  0  0  0
   -7.4750    1.6760    1.4910 C   0  0  0  0  0  0  0  0  0  0  0  0
    0.9670    0.9110   -2.0550 C   0  0  0  0  0  0  0  0  0  0  0  0
   -3.5020    0.1310   -0.3150 C   0  0  0  0  0  0  0  0  0  0  0  0
   -0.2330    0.0810   -2.1250 C   0  0  0  0  0  0  0  0  0  0  0  0
    2.2230    0.4580   -2.5140 C   0  0  0  0  0  0  0  0  0  0  0  0
    2.3760   -0.8620   -2.9850 N   0  0  0  0  0  0  0  0  0  0  0  0
    3.2870   -1.7870   -2.5590 C   0  0  0  0  0  0  0  0  0  0  0  0
   -1.2610    0.3880   -1.3010 O   0  0  0  0  0  0  0  0  0  0  0  0
   -3.8250    1.0540    3.1390 O   0  0  0  0  0  0  0  0  0  0  0  0
    3.5370   -1.2450   -0.1400 O   0  0  0  0  0  0  0  0  0  0  0  0
   -0.3950   -0.8640   -2.8880 O   0  0  0  0  0  0  0  0  0  0  0  0
    4.2780   -0.7360    0.8910 C   0  0  0  0  0  0  0  0  0  0  0  0
    3.2620   -2.8510   -3.1360 O   0  0  0  0  0  0  0  0  0  0  0  0
   -2.4910   -0.3870   -1.3210 C   0  0  0  0  0  0  0  0  0  0  0  0
    5.0590   -1.5730    1.6950 C   0  0  0  0  0  0  0  0  0  0  0  0
    4.2290   -1.5220   -1.3960 C   0  0  0  0  0  0  0  0  0  0  0  0
    0.8960    2.2140   -1.5290 C   0  0  0  0  0  0  0  0  0  0  0  0
   -8.8080    2.1670    1.9860 C   0  0  0  0  0  0  0  0  0  0  0  0
    3.3370    1.3030   -2.5260 C   0  0  0  0  0  0  0  0  0  0  0  0
    4.2300    0.6380    1.1070 C   0  0  0  0  0  0  0  0  0  0  0  0
    5.0920   -3.0750    1.4920 C   0  0  0  0  0  0  0  0  0  0  0  0
    5.8250   -0.9960    2.7070 C   0  0  0  0  0  0  0  0  0  0  0  0
    2.0120    3.0420   -1.5090 C   0  0  0  0  0  0  0  0  0  0  0  0
    3.2290    2.5900   -2.0180 C   0  0  0  0  0  0  0  0  0  0  0  0
    4.9940    1.1980    2.1250 C   0  0  0  0  0  0  0  0  0  0  0  0
    5.7950    0.3820    2.9210 C   0  0  0  0  0  0  0  0  0  0  0  0
  1  2  1  0  0  0  0
  1  4  1  0  0  0  0
  1  5  1  0  0  0  0
  2  3  1  0  0  0  0
  2  6  2  0  0  0  0
  3  8  1  0  0  0  0
  4  7  1  0  0  0  0
  4 16  2  0  0  0  0
  5  8  2  0  0  0  0
  6 10  1  0  0  0  0
  7 10  2  0  0  0  0
  8 25  1  0  0  0  0
  9 11  1  0  0  0  0
  9 12  2  0  0  0  0
  9 24  1  0  0  0  0
 10 21  1  0  0  0  0
 11 15  1  0  0  0  0
 11 18  2  0  0  0  0
 12 13  1  0  0  0  0
 12 26  1  0  0  0  0
 13 14  1  0  0  0  0
 14 20  2  0  0  0  0
 14 23  1  0  0  0  0
 15 21  1  0  0  0  0
 17 19  1  0  0  0  0
 17 23  1  0  0  0  0
 19 22  2  0  0  0  0
 19 27  1  0  0  0  0
 22 28  1  0  0  0  0
 22 29  1  0  0  0  0
 24 30  2  0  0  0  0
 26 31  2  0  0  0  0
 27 32  2  0  0  0  0
 29 33  2  0  0  0  0
 30 31  1  0  0  0  0
 32 33  1  0  0  0  0
M  END
>  <NScode>
NS-023854166-0000

>  <a_acc>
6

>  <a_don>
1

>  <chiral>
0

>  <opr_nrot>
7

>  <Weight>
464.50198

>  <druglike>
1

>  <lip_druglike>
1

>  <lip_violation>
0

>  <logS>
-6.4450898

$$$$
