NS-016037964-0000
  MOE2022           3D

 32 35  0  0  1  0  0  0  0  0999 V2000
   -0.5230    1.7660   -0.2640 N   0  0  0  0  0  0  0  0  0  0  0  0
    0.7300    1.7670    0.1240 C   0  0  0  0  0  0  0  0  0  0  0  0
   -1.3190    2.8740   -0.1760 N   0  0  0  0  0  0  0  0  0  0  0  0
   -0.8580    4.0920    0.3550 C   0  0  0  0  0  0  0  0  0  0  0  0
    1.3450    2.9990    0.6180 C   0  0  0  0  0  0  0  0  0  0  0  0
    0.5330    4.1480    0.7500 C   0  0  0  0  0  0  0  0  0  0  0  0
    1.4400    0.4760    0.0310 C   0  0  0  0  0  0  0  0  0  0  0  0
    1.5730   -3.2430    0.8400 N   0  3  0  0  0  0  0  0  0  0  0  0
    0.8550   -0.5520   -0.6820 N   0  0  0  0  0  0  0  0  0  0  0  0
    2.3950   -2.6010   -0.2730 C   0  0  3  0  0  0  0  0  0  0  0  0
   -2.6620    2.7320   -0.6380 C   0  0  0  0  0  0  0  0  0  0  0  0
   -1.6460    5.0370    0.4490 O   0  0  0  0  0  0  0  0  0  0  0  0
    1.6180   -1.6800   -1.2640 C   0  0  0  0  0  0  0  0  0  0  0  0
    2.5070    0.1860    0.5710 O   0  0  0  0  0  0  0  0  0  0  0  0
    3.2220   -3.6440   -1.0470 C   0  0  0  0  0  0  0  0  0  0  0  0
   -0.8400   -3.5370    2.4890 O   0  0  0  0  0  0  0  0  0  0  0  0
    2.7130    3.1210    0.9570 C   0  0  0  0  0  0  0  0  0  0  0  0
    1.0760    5.3450    1.2480 C   0  0  0  0  0  0  0  0  0  0  0  0
    0.3370   -4.0130    0.3810 C   0  0  0  0  0  0  0  0  0  0  0  0
    1.2050   -2.2740    1.9620 C   0  0  0  0  0  0  0  0  0  0  0  0
    4.1080   -4.5590   -0.1780 C   0  0  0  0  0  0  0  0  0  0  0  0
    0.3010   -2.8850    3.0530 C   0  0  0  0  0  0  0  0  0  0  0  0
   -0.5300   -4.5560    1.5370 C   0  0  0  0  0  0  0  0  0  0  0  0
   -2.8880    2.5020   -1.9950 C   0  0  0  0  0  0  0  0  0  0  0  0
   -3.7160    2.8040    0.2720 C   0  0  0  0  0  0  0  0  0  0  0  0
    5.1140   -3.7530    0.6570 C   0  0  0  0  0  0  0  0  0  0  0  0
    4.8810   -5.5220   -1.0870 C   0  0  0  0  0  0  0  0  0  0  0  0
    2.4120    5.4270    1.5930 C   0  0  0  0  0  0  0  0  0  0  0  0
    3.2320    4.3110    1.4410 C   0  0  0  0  0  0  0  0  0  0  0  0
   -5.0190    2.6390   -0.1880 C   0  0  0  0  0  0  0  0  0  0  0  0
   -4.1950    2.3390   -2.4450 C   0  0  0  0  0  0  0  0  0  0  0  0
   -5.2580    2.4070   -1.5430 C   0  0  0  0  0  0  0  0  0  0  0  0
  1  2  2  0  0  0  0
  1  3  1  0  0  0  0
  2  5  1  0  0  0  0
  2  7  1  0  0  0  0
  3  4  1  0  0  0  0
  3 11  1  0  0  0  0
  4  6  1  0  0  0  0
  4 12  2  0  0  0  0
  5  6  2  0  0  0  0
  5 17  1  0  0  0  0
  6 18  1  0  0  0  0
  7  9  1  0  0  0  0
  7 14  2  0  0  0  0
  8 10  1  0  0  0  0
  8 19  1  0  0  0  0
  8 20  1  0  0  0  0
  9 13  1  0  0  0  0
 10 13  1  0  0  0  0
 10 15  1  0  0  0  0
 11 24  1  0  0  0  0
 11 25  2  0  0  0  0
 15 21  1  0  0  0  0
 16 22  1  0  0  0  0
 16 23  1  0  0  0  0
 17 29  2  0  0  0  0
 18 28  2  0  0  0  0
 19 23  1  0  0  0  0
 20 22  1  0  0  0  0
 21 26  1  0  0  0  0
 21 27  1  0  0  0  0
 24 31  2  0  0  0  0
 25 30  1  0  0  0  0
 28 29  1  0  0  0  0
 30 32  2  0  0  0  0
 31 32  1  0  0  0  0
M  CHG  1   8   1
M  END
>  <NScode>
NS-016037964-0000

>  <a_acc>
5

>  <a_don>
1

>  <chiral>
1

>  <opr_nrot>
9

>  <Weight>
434.53998

>  <druglike>
1

>  <lip_druglike>
1

>  <lip_violation>
0

>  <logS>
-5.8306799

$$$$
