NS-042235775-0000
  MOE2022           3D

 20 22  0  0  0  0  0  0  0  0999 V2000
    2.0480   -1.3600    1.9650 N   0  3  0  0  0  0  0  0  0  0  0  0
    0.9690   -2.3780    1.8840 C   0  0  0  0  0  0  0  0  0  0  0  0
    0.9720   -3.1850    0.5560 C   0  0  0  0  0  0  0  0  0  0  0  0
    0.5010   -2.2840   -0.6260 C   0  0  0  0  0  0  0  0  0  0  0  0
    1.0010   -0.8700   -0.6410 C   0  0  0  0  0  0  0  0  0  0  0  0
    0.3020    0.2040   -0.2080 C   0  0  0  0  0  0  0  0  0  0  0  0
    1.0670    1.3450   -0.3250 N   0  0  0  0  0  0  0  0  0  0  0  0
    2.3400    1.0480   -0.7570 C   0  0  0  0  0  0  0  0  0  0  0  0
    3.4810    1.8360   -0.9790 C   0  0  0  0  0  0  0  0  0  0  0  0
    4.6360    1.2340   -1.5020 C   0  0  0  0  0  0  0  0  0  0  0  0
    4.6300   -0.1360   -1.8180 C   0  0  0  0  0  0  0  0  0  0  0  0
    3.4780   -0.9140   -1.5950 C   0  0  0  0  0  0  0  0  0  0  0  0
    2.3090   -0.3500   -1.0390 C   0  0  0  0  0  0  0  0  0  0  0  0
    2.3810   -3.8120    0.3280 C   0  0  0  0  0  0  0  0  0  0  0  0
    2.4300   -4.8550   -0.8110 C   0  0  0  0  0  0  0  0  0  0  0  0
    1.3610   -5.9450   -0.6600 C   0  0  0  0  0  0  0  0  0  0  0  0
    1.6980   -6.7600    0.3620 F   0  0  0  0  0  0  0  0  0  0  0  0
    1.3490   -6.7340   -1.7460 F   0  0  0  0  0  0  0  0  0  0  0  0
   -0.0370   -5.3670   -0.4090 C   0  0  0  0  0  0  0  0  0  0  0  0
   -0.0470   -4.3440    0.7470 C   0  0  0  0  0  0  0  0  0  0  0  0
  1  2  1  0  0  0  0
  2  3  1  0  0  0  0
  3  4  1  0  0  0  0
  3 14  1  0  0  0  0
  3 20  1  0  0  0  0
  4  5  1  0  0  0  0
  5  6  2  0  0  0  0
  5 13  1  0  0  0  0
  6  7  1  0  0  0  0
  7  8  1  0  0  0  0
  8  9  1  0  0  0  0
  8 13  2  0  0  0  0
  9 10  2  0  0  0  0
 10 11  1  0  0  0  0
 11 12  2  0  0  0  0
 12 13  1  0  0  0  0
 14 15  1  0  0  0  0
 15 16  1  0  0  0  0
 16 17  1  0  0  0  0
 16 18  1  0  0  0  0
 16 19  1  0  0  0  0
 19 20  1  0  0  0  0
M  CHG  1   1   1
M  END
>  <NScode>
NS-042235775-0000

>  <a_acc>
1

>  <a_don>
2

>  <chiral>
0

>  <opr_nrot>
5

>  <Weight>
278.34601

>  <druglike>
1

>  <lip_druglike>
1

>  <lip_violation>
0

>  <logS>
-3.0113201

$$$$
