NS-042270969-0000
  MOE2022           3D

 29 32  0  0  1  0  0  0  0  0999 V2000
   -5.0310   -2.9380   -2.2370 C   0  0  0  0  0  0  0  0  0  0  0  0
   -5.6770   -2.2210   -1.0540 C   0  0  0  0  0  0  0  0  0  0  0  0
   -5.3920   -0.8090   -1.0800 O   0  0  0  0  0  0  0  0  0  0  0  0
   -5.7790   -0.0780    0.0230 C   0  0  0  0  0  0  0  0  0  0  0  0
   -6.9490    0.6690   -0.0650 C   0  0  0  0  0  0  0  0  0  0  0  0
   -7.4000    1.3770    1.0480 C   0  0  0  0  0  0  0  0  0  0  0  0
   -6.6820    1.3370    2.2440 C   0  0  0  0  0  0  0  0  0  0  0  0
   -5.5030    0.6000    2.3340 C   0  0  0  0  0  0  0  0  0  0  0  0
   -5.0390   -0.0970    1.2180 C   0  0  0  0  0  0  0  0  0  0  0  0
   -3.8050   -0.7990    1.3080 N   0  0  0  0  0  0  0  0  0  0  0  0
   -2.6820   -0.5640    0.4090 C   0  0  0  0  0  0  0  0  0  0  0  0
   -1.7100   -1.7210    0.6460 C   0  0  3  0  0  0  0  0  0  0  0  0
   -2.0960   -2.2360    2.0410 C   0  0  0  0  0  0  0  0  0  0  0  0
   -3.4980   -1.7420    2.2500 C   0  0  0  0  0  0  0  0  0  0  0  0
   -4.2780   -2.1310    3.0920 O   0  0  0  0  0  0  0  0  0  0  0  0
   -0.2620   -1.3210    0.4960 C   0  0  0  0  0  0  0  0  0  0  0  0
    0.2560   -0.4540    1.1700 O   0  0  0  0  0  0  0  0  0  0  0  0
    0.4480   -1.9800   -0.4410 O   0  0  0  0  0  0  0  0  0  0  0  0
    1.7930   -1.6310   -0.6030 N   0  0  0  0  0  0  0  0  0  0  0  0
    2.2430   -0.5930   -1.3970 C   0  0  0  0  0  0  0  0  0  0  0  0
    1.5120    0.0570   -2.1350 O   0  0  0  0  0  0  0  0  0  0  0  0
    3.6650   -0.4780   -1.1650 C   0  0  0  0  0  0  0  0  0  0  0  0
    4.6160    0.3960   -1.6930 C   0  0  0  0  0  0  0  0  0  0  0  0
    5.9420    0.2740   -1.2790 C   0  0  0  0  0  0  0  0  0  0  0  0
    6.3080   -0.7090   -0.3490 C   0  0  0  0  0  0  0  0  0  0  0  0
    5.3510   -1.5770    0.1740 C   0  0  0  0  0  0  0  0  0  0  0  0
    4.0260   -1.4480   -0.2460 C   0  0  0  0  0  0  0  0  0  0  0  0
    2.8370   -2.1860    0.1140 C   0  0  0  0  0  0  0  0  0  0  0  0
    2.7000   -3.1270    0.8870 O   0  0  0  0  0  0  0  0  0  0  0  0
  1  2  1  0  0  0  0
  2  3  1  0  0  0  0
  3  4  1  0  0  0  0
  4  5  1  0  0  0  0
  4  9  2  0  0  0  0
  5  6  2  0  0  0  0
  6  7  1  0  0  0  0
  7  8  2  0  0  0  0
  8  9  1  0  0  0  0
  9 10  1  0  0  0  0
 10 11  1  0  0  0  0
 10 14  1  0  0  0  0
 11 12  1  0  0  0  0
 12 13  1  0  0  0  0
 12 16  1  0  0  0  0
 13 14  1  0  0  0  0
 14 15  2  0  0  0  0
 16 17  2  0  0  0  0
 16 18  1  0  0  0  0
 18 19  1  0  0  0  0
 19 20  1  0  0  0  0
 19 28  1  0  0  0  0
 20 21  2  0  0  0  0
 20 22  1  0  0  0  0
 22 23  1  0  0  0  0
 22 27  2  0  0  0  0
 23 24  2  0  0  0  0
 24 25  1  0  0  0  0
 25 26  2  0  0  0  0
 26 27  1  0  0  0  0
 27 28  1  0  0  0  0
 28 29  2  0  0  0  0
M  END
>  <NScode>
NS-042270969-0000

>  <a_acc>
5

>  <a_don>
0

>  <chiral>
1

>  <opr_nrot>
5

>  <Weight>
394.383

>  <druglike>
1

>  <lip_druglike>
1

>  <lip_violation>
0

>  <logS>
-4.5100899

$$$$
