NS-013833268-0000
  MOE2022           3D

 20 22  0  0  0  0  0  0  0  0999 V2000
    3.8020   -1.5830    0.3280 C   0  0  0  0  0  0  0  0  0  0  0  0
    2.6890   -1.8840    1.0080 N   0  3  0  0  0  0  0  0  0  0  0  0
    3.5460   -1.6670   -0.9700 N   0  0  0  0  0  0  0  0  0  0  0  0
    1.6780   -2.1660    0.0910 C   0  0  0  0  0  0  0  0  0  0  0  0
    2.2110   -2.0240   -1.1450 C   0  0  0  0  0  0  0  0  0  0  0  0
   -0.9840   -0.5560   -0.3890 C   0  0  0  0  0  0  0  0  0  0  0  0
   -1.9640    0.5200   -0.1950 C   0  0  0  0  0  0  0  0  0  0  0  0
    5.4070   -1.1320    0.7050 S   0  0  0  0  0  0  0  0  0  0  0  0
   -0.6100   -1.3440    0.6680 N   0  0  0  0  0  0  0  0  0  0  0  0
    4.6480   -1.3620   -1.7670 C   0  0  0  0  0  0  0  0  0  0  0  0
    5.7310   -1.0540   -1.0060 C   0  0  0  0  0  0  0  0  0  0  0  0
   -2.7140    0.9790   -1.2860 C   0  0  0  0  0  0  0  0  0  0  0  0
   -2.1660    1.1090    1.0630 C   0  0  0  0  0  0  0  0  0  0  0  0
   -3.6560    1.9940   -1.1180 C   0  0  0  0  0  0  0  0  0  0  0  0
   -3.1100    2.1230    1.2200 C   0  0  0  0  0  0  0  0  0  0  0  0
   -3.8590    2.5680    0.1340 C   0  0  0  0  0  0  0  0  0  0  0  0
   -0.4710   -0.8130   -1.4700 O   0  0  0  0  0  0  0  0  0  0  0  0
    0.2480   -2.5200    0.4760 C   0  0  0  0  0  0  0  0  0  0  0  0
   -4.5780    2.5410   -2.4760 Cl  0  0  0  0  0  0  0  0  0  0  0  0
   -3.3460    2.8310    2.7800 Cl  0  0  0  0  0  0  0  0  0  0  0  0
  1  2  2  0  0  0  0
  1  3  1  0  0  0  0
  1  8  1  0  0  0  0
  2  4  1  0  0  0  0
  3  5  1  0  0  0  0
  3 10  1  0  0  0  0
  4  5  2  0  0  0  0
  4 18  1  0  0  0  0
  6  7  1  0  0  0  0
  6  9  1  0  0  0  0
  6 17  2  0  0  0  0
  7 12  2  0  0  0  0
  7 13  1  0  0  0  0
  8 11  1  0  0  0  0
  9 18  1  0  0  0  0
 10 11  2  0  0  0  0
 12 14  1  0  0  0  0
 13 15  2  0  0  0  0
 14 16  2  0  0  0  0
 14 19  1  0  0  0  0
 15 16  1  0  0  0  0
 15 20  1  0  0  0  0
M  CHG  1   2   1
M  END
>  <NScode>
NS-013833268-0000

>  <a_acc>
2

>  <a_don>
1

>  <chiral>
0

>  <opr_nrot>
3

>  <Weight>
326.207

>  <druglike>
1

>  <lip_druglike>
1

>  <lip_violation>
0

>  <logS>
-4.6342301

$$$$
