NS-012483675-0000
  MOE2022           3D

 27 29  0  0  0  0  0  0  0  0999 V2000
    8.7910   -1.0840   -0.8430 N   0  0  0  0  0  0  0  0  0  0  0  0
    7.8230   -0.2610   -1.3240 C   0  0  0  0  0  0  0  0  0  0  0  0
    8.6380   -2.1480   -1.5220 C   0  0  0  0  0  0  0  0  0  0  0  0
    7.1290   -0.8360   -2.2470 N   0  0  0  0  0  0  0  0  0  0  0  0
    9.0610   -5.8250   -0.8340 C   0  0  0  0  0  0  0  0  0  0  0  0
    7.6430   -2.0370   -2.3760 O   0  0  0  0  0  0  0  0  0  0  0  0
    8.7790   -4.4940   -0.5800 N   0  0  0  0  0  0  0  0  0  0  0  0
    7.5970    1.1070   -0.8460 C   0  0  0  0  0  0  0  0  0  0  0  0
    9.4100   -3.4510   -1.4320 C   0  0  0  0  0  0  0  0  0  0  0  0
    8.4240    1.6710    0.1380 C   0  0  0  0  0  0  0  0  0  0  0  0
    8.2110    2.9660    0.5950 C   0  0  0  0  0  0  0  0  0  0  0  0
    8.3520   -6.8980   -0.1300 C   0  0  0  0  0  0  0  0  0  0  0  0
    9.9350   -6.0600   -1.6610 O   0  0  0  0  0  0  0  0  0  0  0  0
    7.1530    3.7340    0.0750 C   0  0  0  0  0  0  0  0  0  0  0  0
    6.5460    1.8880   -1.3580 C   0  0  0  0  0  0  0  0  0  0  0  0
    6.3240    3.1850   -0.9050 C   0  0  0  0  0  0  0  0  0  0  0  0
    6.9490   -6.8930   -0.0240 C   0  0  0  0  0  0  0  0  0  0  0  0
    9.0790   -7.9600    0.4350 C   0  0  0  0  0  0  0  0  0  0  0  0
    7.0390   -8.9420    1.2100 C   0  0  0  0  0  0  0  0  0  0  0  0
    9.1040    3.4010    1.5690 O   0  0  0  0  0  0  0  0  0  0  0  0
    8.4240   -8.9850    1.1110 C   0  0  0  0  0  0  0  0  0  0  0  0
    6.2880   -7.9150    0.6510 C   0  0  0  0  0  0  0  0  0  0  0  0
    6.3970   -9.9370    1.8710 F   0  0  0  0  0  0  0  0  0  0  0  0
    6.9240    5.0270    0.5250 O   0  0  0  0  0  0  0  0  0  0  0  0
    8.1250   -4.0460    0.6670 C   0  0  0  0  0  0  0  0  0  0  0  0
    9.1510    4.6900    2.2190 C   0  0  0  0  0  0  0  0  0  0  0  0
    5.8680    5.9100    0.0830 C   0  0  0  0  0  0  0  0  0  0  0  0
  1  2  1  0  0  0  0
  1  3  2  0  0  0  0
  2  4  2  0  0  0  0
  2  8  1  0  0  0  0
  3  6  1  0  0  0  0
  3  9  1  0  0  0  0
  4  6  1  0  0  0  0
  5  7  1  0  0  0  0
  5 12  1  0  0  0  0
  5 13  2  0  0  0  0
  7  9  1  0  0  0  0
  7 25  1  0  0  0  0
  8 10  1  0  0  0  0
  8 15  2  0  0  0  0
 10 11  2  0  0  0  0
 11 14  1  0  0  0  0
 11 20  1  0  0  0  0
 12 17  1  0  0  0  0
 12 18  2  0  0  0  0
 14 16  2  0  0  0  0
 14 24  1  0  0  0  0
 15 16  1  0  0  0  0
 17 22  2  0  0  0  0
 18 21  1  0  0  0  0
 19 21  2  0  0  0  0
 19 22  1  0  0  0  0
 19 23  1  0  0  0  0
 20 26  1  0  0  0  0
 24 27  1  0  0  0  0
M  END
>  <NScode>
NS-012483675-0000

>  <a_acc>
5

>  <a_don>
0

>  <chiral>
0

>  <opr_nrot>
6

>  <Weight>
371.36798

>  <druglike>
1

>  <lip_druglike>
1

>  <lip_violation>
0

>  <logS>
-5.3875098

$$$$
