NS-019188423-0000
  MOE2022           3D

 29 31  0  0  0  0  0  0  0  0999 V2000
    0.3450   -2.4180    0.0570 N   0  0  0  0  0  0  0  0  0  0  0  0
   -0.8840   -1.7640   -0.0370 C   0  0  0  0  0  0  0  0  0  0  0  0
    0.4830   -3.5690    0.8200 C   0  0  0  0  0  0  0  0  0  0  0  0
   -1.9310   -2.2680    0.7150 N   0  0  0  0  0  0  0  0  0  0  0  0
   -0.6470   -4.0310    1.5720 C   0  0  0  0  0  0  0  0  0  0  0  0
    1.9850   -0.4920    0.1380 C   0  0  0  0  0  0  0  0  0  0  0  0
    1.5330   -1.7770   -0.5550 C   0  0  0  0  0  0  0  0  0  0  0  0
   -1.8340   -3.3840    1.5180 C   0  0  0  0  0  0  0  0  0  0  0  0
   -1.0440   -0.7470   -0.8070 N   0  0  0  0  0  0  0  0  0  0  0  0
    2.1030    0.7060   -0.5690 N   0  0  0  0  0  0  0  0  0  0  0  0
    2.4620    1.9100    0.0850 C   0  0  0  0  0  0  0  0  0  0  0  0
   -2.2400   -0.0070   -0.8240 C   0  0  0  0  0  0  0  0  0  0  0  0
    1.5620   -4.1560    0.8010 O   0  0  0  0  0  0  0  0  0  0  0  0
    2.2690   -0.5010    1.3230 O   0  0  0  0  0  0  0  0  0  0  0  0
    3.6340    2.5700   -0.2890 C   0  0  0  0  0  0  0  0  0  0  0  0
   -4.1670    0.8200   -2.0370 C   0  0  0  0  0  0  0  0  0  0  0  0
   -3.9090    1.3380    0.3110 C   0  0  0  0  0  0  0  0  0  0  0  0
   -2.9720    0.1070   -2.0060 C   0  0  0  0  0  0  0  0  0  0  0  0
   -2.7120    0.6300    0.3290 C   0  0  0  0  0  0  0  0  0  0  0  0
   -4.6350    1.4290   -0.8750 C   0  0  0  0  0  0  0  0  0  0  0  0
    3.9690    3.7750    0.3230 C   0  0  0  0  0  0  0  0  0  0  0  0
    1.6250    2.4360    1.0690 C   0  0  0  0  0  0  0  0  0  0  0  0
    1.7770    0.8190   -1.9970 C   0  0  0  0  0  0  0  0  0  0  0  0
   -3.0910   -3.7740    2.2580 C   0  0  0  0  0  0  0  0  0  0  0  0
    1.9630    3.6400    1.6750 C   0  0  0  0  0  0  0  0  0  0  0  0
   -4.4110    2.0280    1.5590 C   0  0  0  0  0  0  0  0  0  0  0  0
   -4.9640    0.9310   -3.3180 C   0  0  0  0  0  0  0  0  0  0  0  0
    3.1280    4.3090    1.3020 C   0  0  0  0  0  0  0  0  0  0  0  0
    5.2320    4.5110   -0.0640 C   0  0  0  0  0  0  0  0  0  0  0  0
  1  2  1  0  0  0  0
  1  3  1  0  0  0  0
  1  7  1  0  0  0  0
  2  4  1  0  0  0  0
  2  9  2  0  0  0  0
  3  5  1  0  0  0  0
  3 13  2  0  0  0  0
  4  8  1  0  0  0  0
  5  8  2  0  0  0  0
  6  7  1  0  0  0  0
  6 10  1  0  0  0  0
  6 14  2  0  0  0  0
  8 24  1  0  0  0  0
  9 12  1  0  0  0  0
 10 11  1  0  0  0  0
 10 23  1  0  0  0  0
 11 15  1  0  0  0  0
 11 22  2  0  0  0  0
 12 18  1  0  0  0  0
 12 19  2  0  0  0  0
 15 21  2  0  0  0  0
 16 18  2  0  0  0  0
 16 20  1  0  0  0  0
 16 27  1  0  0  0  0
 17 19  1  0  0  0  0
 17 20  2  0  0  0  0
 17 26  1  0  0  0  0
 21 28  1  0  0  0  0
 21 29  1  0  0  0  0
 22 25  1  0  0  0  0
 25 28  2  0  0  0  0
M  END
>  <NScode>
NS-019188423-0000

>  <a_acc>
3

>  <a_don>
1

>  <chiral>
0

>  <opr_nrot>
5

>  <Weight>
390.487

>  <druglike>
1

>  <lip_druglike>
1

>  <lip_violation>
0

>  <logS>
-5.8440499

$$$$
