NS-017888035-0000
  MOE2022           3D

 27 29  0  0  0  0  0  0  0  0999 V2000
   -4.8250    1.1530   -0.5150 C   0  0  0  0  0  0  0  0  0  0  0  0
   -6.0320    1.8330   -0.7310 N   0  0  0  0  0  0  0  0  0  0  0  0
   -4.8900   -0.1580   -0.2450 N   0  0  0  0  0  0  0  0  0  0  0  0
   -0.2020   -0.5550    0.7960 C   0  0  0  0  0  0  0  0  0  0  0  0
   -1.3380   -0.9860    0.1790 N   0  0  0  0  0  0  0  0  0  0  0  0
   -0.0680    0.5530    1.2950 O   0  0  0  0  0  0  0  0  0  0  0  0
   -3.6030    1.8370   -0.5910 C   0  0  0  0  0  0  0  0  0  0  0  0
    0.7770   -1.4930    0.8190 N   0  0  0  0  0  0  0  0  0  0  0  0
   -8.6850    2.9850   -0.2610 O   0  0  0  0  0  0  0  0  0  0  0  0
   -3.7580   -0.8260   -0.0180 C   0  0  0  0  0  0  0  0  0  0  0  0
   -2.5060   -0.2030   -0.0580 C   0  0  0  0  0  0  0  0  0  0  0  0
    7.5300    0.3980   -1.0680 C   0  0  0  0  0  0  0  0  0  0  0  0
   -2.4220    1.1560   -0.3580 C   0  0  0  0  0  0  0  0  0  0  0  0
    6.7170    0.2190    0.0470 C   0  0  0  0  0  0  0  0  0  0  0  0
    8.8700    0.7440   -0.9020 C   0  0  0  0  0  0  0  0  0  0  0  0
   -6.2430    3.0470    0.0900 C   0  0  0  0  0  0  0  0  0  0  0  0
   -7.2760    1.0220   -0.7550 C   0  0  0  0  0  0  0  0  0  0  0  0
    3.0810   -0.7820    0.2540 C   0  0  0  0  0  0  0  0  0  0  0  0
    5.4020   -0.1230   -0.1830 O   0  0  0  0  0  0  0  0  0  0  0  0
    8.5660    0.7210    1.5000 C   0  0  0  0  0  0  0  0  0  0  0  0
    2.1030   -1.1980    1.3530 C   0  0  0  0  0  0  0  0  0  0  0  0
   -8.5270    1.8500   -1.1160 C   0  0  0  0  0  0  0  0  0  0  0  0
   -7.5240    3.8170   -0.2970 C   0  0  0  0  0  0  0  0  0  0  0  0
    4.4410   -0.4140    0.8490 C   0  0  0  0  0  0  0  0  0  0  0  0
    7.2280    0.3800    1.3370 C   0  0  0  0  0  0  0  0  0  0  0  0
    9.3840    0.9000    0.3860 C   0  0  0  0  0  0  0  0  0  0  0  0
    9.7660    0.9330   -2.1050 C   0  0  0  0  0  0  0  0  0  0  0  0
  1  2  1  0  0  0  0
  1  3  2  0  0  0  0
  1  7  1  0  0  0  0
  2 16  1  0  0  0  0
  2 17  1  0  0  0  0
  3 10  1  0  0  0  0
  4  5  1  0  0  0  0
  4  6  2  0  0  0  0
  4  8  1  0  0  0  0
  5 11  1  0  0  0  0
  7 13  2  0  0  0  0
  8 21  1  0  0  0  0
  9 22  1  0  0  0  0
  9 23  1  0  0  0  0
 10 11  2  0  0  0  0
 11 13  1  0  0  0  0
 12 14  2  0  0  0  0
 12 15  1  0  0  0  0
 14 19  1  0  0  0  0
 14 25  1  0  0  0  0
 15 26  2  0  0  0  0
 15 27  1  0  0  0  0
 16 23  1  0  0  0  0
 17 22  1  0  0  0  0
 18 21  1  0  0  0  0
 18 24  1  0  0  0  0
 19 24  1  0  0  0  0
 20 25  2  0  0  0  0
 20 26  1  0  0  0  0
M  END
>  <NScode>
NS-017888035-0000

>  <a_acc>
4

>  <a_don>
2

>  <chiral>
0

>  <opr_nrot>
9

>  <Weight>
370.453

>  <druglike>
1

>  <lip_druglike>
1

>  <lip_violation>
0

>  <logS>
-3.2206099

$$$$
