NS-020345007-0000
  MOE2022           3D

 25 27  0  0  0  0  0  0  0  0999 V2000
   -6.5940   -0.7190   -0.2350 C   0  0  0  0  0  0  0  0  0  0  0  0
   -6.6340    0.7910   -0.1180 C   0  0  0  0  0  0  0  0  0  0  0  0
   -7.8550    1.4630   -0.1240 C   0  0  0  0  0  0  0  0  0  0  0  0
   -7.8980    2.8510   -0.0200 C   0  0  0  0  0  0  0  0  0  0  0  0
   -6.7180    3.5820    0.0900 C   0  0  0  0  0  0  0  0  0  0  0  0
   -5.4910    2.9270    0.0980 C   0  0  0  0  0  0  0  0  0  0  0  0
   -5.4550    1.5330   -0.0030 C   0  0  0  0  0  0  0  0  0  0  0  0
   -4.2540    0.8470    0.0080 O   0  0  0  0  0  0  0  0  0  0  0  0
   -2.9460    1.4490    0.1340 C   0  0  0  0  0  0  0  0  0  0  0  0
   -1.8410    0.3930    0.1660 C   0  0  0  0  0  0  0  0  0  0  0  0
   -0.4990    0.9610    0.3540 N   0  0  0  0  0  0  0  0  0  0  0  0
    0.5980    0.2450    0.0080 C   0  0  0  0  0  0  0  0  0  0  0  0
    0.5280   -0.8290   -0.5720 O   0  0  0  0  0  0  0  0  0  0  0  0
    1.7640    0.8550    0.3640 N   0  0  0  0  0  0  0  0  0  0  0  0
    3.0630    0.3110    0.2270 C   0  0  0  0  0  0  0  0  0  0  0  0
    4.1120    1.1970   -0.0330 C   0  0  0  0  0  0  0  0  0  0  0  0
    5.4070    0.7080   -0.1630 C   0  0  0  0  0  0  0  0  0  0  0  0
    5.6370   -0.6620   -0.0320 C   0  0  0  0  0  0  0  0  0  0  0  0
    6.9530   -1.1550   -0.1730 N   0  0  0  0  0  0  0  0  0  0  0  0
    7.2400   -2.4720   -0.3070 C   0  0  0  0  0  0  0  0  0  0  0  0
    8.4070   -2.7880   -0.3370 O   0  0  0  0  0  0  0  0  0  0  0  0
    6.0980   -3.4510   -0.4280 C   0  0  0  0  0  0  0  0  0  0  0  0
    4.8840   -3.0330    0.4130 C   0  0  0  0  0  0  0  0  0  0  0  0
    4.5930   -1.5560    0.2390 C   0  0  0  0  0  0  0  0  0  0  0  0
    3.3010   -1.0600    0.3730 C   0  0  0  0  0  0  0  0  0  0  0  0
  1  2  1  0  0  0  0
  2  3  1  0  0  0  0
  2  7  2  0  0  0  0
  3  4  2  0  0  0  0
  4  5  1  0  0  0  0
  5  6  2  0  0  0  0
  6  7  1  0  0  0  0
  7  8  1  0  0  0  0
  8  9  1  0  0  0  0
  9 10  1  0  0  0  0
 10 11  1  0  0  0  0
 11 12  1  0  0  0  0
 12 13  2  0  0  0  0
 12 14  1  0  0  0  0
 14 15  1  0  0  0  0
 15 16  1  0  0  0  0
 15 25  2  0  0  0  0
 16 17  2  0  0  0  0
 17 18  1  0  0  0  0
 18 19  1  0  0  0  0
 18 24  2  0  0  0  0
 19 20  1  0  0  0  0
 20 21  2  0  0  0  0
 20 22  1  0  0  0  0
 22 23  1  0  0  0  0
 23 24  1  0  0  0  0
 24 25  1  0  0  0  0
M  END
>  <NScode>
NS-020345007-0000

>  <a_acc>
3

>  <a_don>
3

>  <chiral>
0

>  <opr_nrot>
5

>  <Weight>
339.39499

>  <druglike>
1

>  <lip_druglike>
1

>  <lip_violation>
0

>  <logS>
-3.7012601

$$$$
