NS-016998446-0000
  MOE2022           3D

 15 16  0  0  0  0  0  0  0  0999 V2000
   -0.7150   -1.1110    0.4810 C   0  0  0  0  0  0  0  0  0  0  0  0
    0.4020   -1.8710    0.1670 N   0  0  0  0  0  0  0  0  0  0  0  0
   -0.6690    0.2610    0.9460 C   0  0  0  0  0  0  0  0  0  0  0  0
   -1.8070   -1.9220    0.2820 C   0  0  0  0  0  0  0  0  0  0  0  0
    0.0030   -3.1090   -0.2440 C   0  0  0  0  0  0  0  0  0  0  0  0
   -1.3580   -3.1580   -0.1750 C   0  0  0  0  0  0  0  0  0  0  0  0
    0.1750    1.1200    0.3090 N   0  0  0  0  0  0  0  0  0  0  0  0
   -1.3610    0.6940    1.8580 O   0  0  0  0  0  0  0  0  0  0  0  0
   -2.4270   -4.6410   -0.6180 Br  0  0  0  0  0  0  0  0  0  0  0  0
    1.8010   -1.4820    0.2830 C   0  0  0  0  0  0  0  0  0  0  0  0
    0.2090    2.5430    0.5880 C   0  0  0  0  0  0  0  0  0  0  0  0
   -0.7740    3.3290   -0.2690 C   0  0  0  0  0  0  0  0  0  0  0  0
    1.5440    3.1730    0.2060 C   0  0  0  0  0  0  0  0  0  0  0  0
    1.2430    4.6660    0.0350 C   0  0  0  0  0  0  0  0  0  0  0  0
   -0.2750    4.7720   -0.1590 C   0  0  0  0  0  0  0  0  0  0  0  0
  1  2  1  0  0  0  0
  1  3  1  0  0  0  0
  1  4  2  0  0  0  0
  2  5  1  0  0  0  0
  2 10  1  0  0  0  0
  3  7  1  0  0  0  0
  3  8  2  0  0  0  0
  4  6  1  0  0  0  0
  5  6  2  0  0  0  0
  6  9  1  0  0  0  0
  7 11  1  0  0  0  0
 11 12  1  0  0  0  0
 11 13  1  0  0  0  0
 12 15  1  0  0  0  0
 13 14  1  0  0  0  0
 14 15  1  0  0  0  0
M  END
>  <NScode>
NS-016998446-0000

>  <a_acc>
1

>  <a_don>
1

>  <chiral>
0

>  <opr_nrot>
3

>  <Weight>
271.15799

>  <druglike>
1

>  <lip_druglike>
1

>  <lip_violation>
0

>  <logS>
-2.0674701

$$$$
