NS-012681902-0000
  MOE2022           3D

 25 26  0  0  1  0  0  0  0  0999 V2000
    6.3900   -2.2880    0.5390 C   0  0  0  0  0  0  0  0  0  0  0  0
    5.0810   -1.9250    1.2000 C   0  0  3  0  0  0  0  0  0  0  0  0
    6.7040   -3.5670    0.8180 C   0  0  0  0  0  0  0  0  0  0  0  0
    7.8400   -4.1830    0.3310 N   0  0  0  0  0  0  0  0  0  0  0  0
    8.3620   -2.1300   -0.7650 N   0  0  0  0  0  0  0  0  0  0  0  0
    5.7730   -4.1700    1.6160 N   0  0  0  0  0  0  0  0  0  0  0  0
    8.6950   -3.4300   -0.4840 C   0  0  0  0  0  0  0  0  0  0  0  0
    7.2320   -1.5230   -0.2970 C   0  0  0  0  0  0  0  0  0  0  0  0
    4.7720   -3.2760    1.8740 C   0  0  0  0  0  0  0  0  0  0  0  0
    5.3040   -0.9150    2.3670 C   0  0  0  0  0  0  0  0  0  0  0  0
    4.0590   -1.4840    0.1650 N   0  0  0  0  0  0  0  0  0  0  0  0
    8.1220   -5.6070    0.5750 C   0  0  0  0  0  0  0  0  0  0  0  0
    3.6890   -2.2410   -0.8620 C   0  0  0  0  0  0  0  0  0  0  0  0
    9.7290   -3.8850   -0.9470 O   0  0  0  0  0  0  0  0  0  0  0  0
    3.8400   -3.5960    2.5790 O   0  0  0  0  0  0  0  0  0  0  0  0
    7.0590   -0.3630   -0.6430 O   0  0  0  0  0  0  0  0  0  0  0  0
    4.1720   -3.3460   -1.0570 O   0  0  0  0  0  0  0  0  0  0  0  0
    5.7060    0.2900    1.9320 F   0  0  0  0  0  0  0  0  0  0  0  0
    4.1840   -0.6760    3.0750 F   0  0  0  0  0  0  0  0  0  0  0  0
    6.2420   -1.3220    3.2510 F   0  0  0  0  0  0  0  0  0  0  0  0
    7.2750   -6.5780   -0.2800 C   0  0  0  0  0  0  0  0  0  0  0  0
    2.6260   -1.6780   -1.7980 C   0  0  0  0  0  0  0  0  0  0  0  0
    7.5580   -8.0360    0.1080 C   0  0  0  0  0  0  0  0  0  0  0  0
    7.5270   -6.4000   -1.7850 C   0  0  0  0  0  0  0  0  0  0  0  0
    1.2280   -1.6310   -1.1600 C   0  0  0  0  0  0  0  0  0  0  0  0
  1  2  1  0  0  0  0
  1  3  2  0  0  0  0
  1  8  1  0  0  0  0
  2  9  1  0  0  0  0
  2 10  1  0  0  0  0
  2 11  1  0  0  0  0
  3  4  1  0  0  0  0
  3  6  1  0  0  0  0
  4  7  1  0  0  0  0
  4 12  1  0  0  0  0
  5  7  1  0  0  0  0
  5  8  1  0  0  0  0
  6  9  1  0  0  0  0
  7 14  2  0  0  0  0
  8 16  2  0  0  0  0
  9 15  2  0  0  0  0
 10 18  1  0  0  0  0
 10 19  1  0  0  0  0
 10 20  1  0  0  0  0
 11 13  1  0  0  0  0
 12 21  1  0  0  0  0
 13 17  2  0  0  0  0
 13 22  1  0  0  0  0
 21 23  1  0  0  0  0
 21 24  1  0  0  0  0
 22 25  1  0  0  0  0
M  END
>  <NScode>
NS-012681902-0000

>  <a_acc>
4

>  <a_don>
3

>  <chiral>
1

>  <opr_nrot>
4

>  <Weight>
362.30798

>  <druglike>
1

>  <lip_druglike>
1

>  <lip_violation>
0

>  <logS>
-3.1063001

$$$$
