NS-005140415-0001
  MOE2022           3D

  8  8  0  0  1  0  0  0  0  0999 V2000
    0.5430    2.0920   -0.0420 F   0  0  0  0  0  0  0  0  0  0  0  0
    0.7590    0.8940    0.5940 C   0  0  2  0  0  0  0  0  0  0  0  0
    1.9480    0.1770   -0.0530 C   0  0  0  0  0  0  0  0  0  0  0  0
    1.6310   -1.2710   -0.0160 N   0  0  0  0  0  0  0  0  0  0  0  0
    0.1720   -1.2850   -0.2890 C   0  0  0  0  0  0  0  0  0  0  0  0
   -0.4220   -0.0930    0.4790 C   0  0  2  0  0  0  0  0  0  0  0  0
   -1.5720    0.4590   -0.1710 O   0  0  0  0  0  0  0  0  0  0  0  0
   -2.7420   -0.3410   -0.0740 C   0  0  0  0  0  0  0  0  0  0  0  0
  1  2  1  0  0  0  0
  2  3  1  0  0  0  0
  2  6  1  0  0  0  0
  3  4  1  0  0  0  0
  4  5  1  0  0  0  0
  5  6  1  0  0  0  0
  6  7  1  0  0  0  0
  7  8  1  0  0  0  0
M  END
>  <NScode>
NS-005140415-0001

>  <a_acc>
2

>  <a_don>
1

>  <chiral>
2

>  <opr_nrot>
2

>  <Weight>
119.139

>  <druglike>
0

>  <lip_druglike>
1

>  <lip_violation>
0

>  <logS>
0.027349999

$$$$
