NS-018343261-0000
  MOE2022           3D

 25 26  0  0  1  0  0  0  0  0999 V2000
   -0.1030   -1.4740    1.0920 C   0  0  0  0  0  0  0  0  0  0  0  0
   -4.7880   -0.9860   -0.3230 C   0  0  0  0  0  0  0  0  0  0  0  0
   -1.1690   -0.6870    0.9610 N   0  0  0  0  0  0  0  0  0  0  0  0
    5.5360    1.6180   -0.2530 C   0  0  0  0  0  0  0  0  0  0  0  0
   -5.7290   -0.4990    0.5880 C   0  0  0  0  0  0  0  0  0  0  0  0
    5.5150    0.2320   -0.1020 C   0  0  0  0  0  0  0  0  0  0  0  0
    4.3230    2.2860   -0.4200 C   0  0  0  0  0  0  0  0  0  0  0  0
   -0.1950   -2.6930    1.1370 O   0  0  0  0  0  0  0  0  0  0  0  0
    3.1070    0.2030   -0.2870 C   0  0  0  0  0  0  0  0  0  0  0  0
   -2.5500   -1.1660    0.8760 C   0  0  0  0  0  0  0  0  0  0  0  0
   -3.3460   -0.5180   -0.2720 C   0  0  3  0  0  0  0  0  0  0  0  0
    3.1160    1.5900   -0.4360 C   0  0  0  0  0  0  0  0  0  0  0  0
    4.3140   -0.4750   -0.1170 C   0  0  0  0  0  0  0  0  0  0  0  0
   -7.0380   -0.9550    0.5150 C   0  0  0  0  0  0  0  0  0  0  0  0
    1.2600   -0.8010    1.1190 C   0  0  0  0  0  0  0  0  0  0  0  0
    1.7980   -0.5570   -0.2950 C   0  0  0  0  0  0  0  0  0  0  0  0
   -7.9450   -0.4780    1.3980 F   0  0  0  0  0  0  0  0  0  0  0  0
    6.6700   -0.5010    0.0690 O   0  0  0  0  0  0  0  0  0  0  0  0
    4.2570    3.6540   -0.5760 O   0  0  0  0  0  0  0  0  0  0  0  0
   -3.3040    0.9250   -0.1670 O   0  0  0  0  0  0  0  0  0  0  0  0
   -5.1880   -1.9250   -1.2800 C   0  0  0  0  0  0  0  0  0  0  0  0
   -6.5100   -2.3720   -1.3350 C   0  0  0  0  0  0  0  0  0  0  0  0
   -7.4480   -1.8840   -0.4310 C   0  0  0  0  0  0  0  0  0  0  0  0
    8.0040    0.0520    0.1170 C   0  0  0  0  0  0  0  0  0  0  0  0
    5.3990    4.5390   -0.6250 C   0  0  0  0  0  0  0  0  0  0  0  0
  1  3  1  0  0  0  0
  1  8  2  0  0  0  0
  1 15  1  0  0  0  0
  2  5  2  0  0  0  0
  2 11  1  0  0  0  0
  2 21  1  0  0  0  0
  3 10  1  0  0  0  0
  4  6  1  0  0  0  0
  4  7  2  0  0  0  0
  5 14  1  0  0  0  0
  6 13  2  0  0  0  0
  6 18  1  0  0  0  0
  7 12  1  0  0  0  0
  7 19  1  0  0  0  0
  9 12  2  0  0  0  0
  9 13  1  0  0  0  0
  9 16  1  0  0  0  0
 10 11  1  0  0  0  0
 11 20  1  0  0  0  0
 14 17  1  0  0  0  0
 14 23  2  0  0  0  0
 15 16  1  0  0  0  0
 18 24  1  0  0  0  0
 19 25  1  0  0  0  0
 21 22  2  0  0  0  0
 22 23  1  0  0  0  0
M  END
>  <NScode>
NS-018343261-0000

>  <a_acc>
4

>  <a_don>
2

>  <chiral>
1

>  <opr_nrot>
8

>  <Weight>
347.38599

>  <druglike>
1

>  <lip_druglike>
1

>  <lip_violation>
0

>  <logS>
-3.4354999

$$$$
