NS-015348938-0000
  MOE2022           3D

 21 22  0  0  0  0  0  0  0  0999 V2000
    1.1250   -0.6640    0.0270 C   0  0  0  0  0  0  0  0  0  0  0  0
    2.3820    0.0280   -0.2660 C   0  0  0  0  0  0  0  0  0  0  0  0
    5.8700   -2.3650   -0.8190 C   0  0  0  0  0  0  0  0  0  0  0  0
    4.7870   -0.1750   -0.8030 N   0  0  0  0  0  0  0  0  0  0  0  0
    1.0310   -1.8910    0.7290 C   0  0  0  0  0  0  0  0  0  0  0  0
    6.9330   -2.9850   -0.1380 C   0  0  0  0  0  0  0  0  0  0  0  0
    3.5540   -0.7050   -0.4310 N   0  0  0  0  0  0  0  0  0  0  0  0
    4.8820   -3.1940   -1.3790 C   0  0  0  0  0  0  0  0  0  0  0  0
    2.4390    1.2440   -0.4300 O   0  0  0  0  0  0  0  0  0  0  0  0
    5.8270   -0.9140   -0.9480 C   0  0  0  0  0  0  0  0  0  0  0  0
    6.9850   -4.3710    0.0230 C   0  0  0  0  0  0  0  0  0  0  0  0
    4.9240   -4.5730   -1.2140 C   0  0  0  0  0  0  0  0  0  0  0  0
    2.4050   -2.7290    1.4020 Cl  0  0  0  0  0  0  0  0  0  0  0  0
    5.9730   -5.1620   -0.5100 C   0  0  0  0  0  0  0  0  0  0  0  0
    3.5560   -5.6510   -1.9490 Br  0  0  0  0  0  0  0  0  0  0  0  0
   -0.0700   -0.0720   -0.4210 C   0  0  0  0  0  0  0  0  0  0  0  0
    7.9280   -2.1780    0.3770 O   0  0  0  0  0  0  0  0  0  0  0  0
   -0.2150   -2.4930    0.9330 C   0  0  0  0  0  0  0  0  0  0  0  0
    9.0700   -2.6230    1.1470 C   0  0  0  0  0  0  0  0  0  0  0  0
   -1.3020   -0.6750   -0.2080 C   0  0  0  0  0  0  0  0  0  0  0  0
   -1.3740   -1.8900    0.4670 C   0  0  0  0  0  0  0  0  0  0  0  0
  1  2  1  0  0  0  0
  1  5  1  0  0  0  0
  1 16  2  0  0  0  0
  2  7  1  0  0  0  0
  2  9  2  0  0  0  0
  3  6  1  0  0  0  0
  3  8  2  0  0  0  0
  3 10  1  0  0  0  0
  4  7  1  0  0  0  0
  4 10  2  0  0  0  0
  5 13  1  0  0  0  0
  5 18  2  0  0  0  0
  6 11  2  0  0  0  0
  6 17  1  0  0  0  0
  8 12  1  0  0  0  0
 11 14  1  0  0  0  0
 12 14  2  0  0  0  0
 12 15  1  0  0  0  0
 16 20  1  0  0  0  0
 17 19  1  0  0  0  0
 18 21  1  0  0  0  0
 20 21  2  0  0  0  0
M  END
>  <NScode>
NS-015348938-0000

>  <a_acc>
3

>  <a_don>
1

>  <chiral>
0

>  <opr_nrot>
4

>  <Weight>
367.63

>  <druglike>
1

>  <lip_druglike>
1

>  <lip_violation>
0

>  <logS>
-5.4132099

$$$$
