NS-018328981-0000
  MOE2022           3D

 21 23  0  0  0  0  0  0  0  0999 V2000
    1.1260    0.2490    1.2460 S   0  0  0  0  0  0  0  0  0  0  0  0
    0.7330   -0.9900    0.2840 N   0  0  0  0  0  0  0  0  0  0  0  0
   -0.2750    1.3700    1.0800 C   0  0  0  0  0  0  0  0  0  0  0  0
    0.9540   -3.1100   -0.8150 C   0  0  0  0  0  0  0  0  0  0  0  0
    1.4460   -2.0970    0.0700 C   0  0  0  0  0  0  0  0  0  0  0  0
    1.1830   -0.1860    2.6160 O   0  0  0  0  0  0  0  0  0  0  0  0
    2.2920    0.9210    0.7360 O   0  5  0  0  0  0  0  0  0  0  0  0
    0.9720   -5.0480   -1.9260 N   0  0  0  0  0  0  0  0  0  0  0  0
   -0.2700    2.3780    0.1160 C   0  0  0  0  0  0  0  0  0  0  0  0
   -1.3400    3.2650   -0.0070 C   0  0  0  0  0  0  0  0  0  0  0  0
    1.6910   -4.2640   -1.0360 C   0  0  0  0  0  0  0  0  0  0  0  0
   -0.2010   -4.3920   -2.2580 C   0  0  0  0  0  0  0  0  0  0  0  0
   -0.2210   -3.2110   -1.5870 C   0  0  0  0  0  0  0  0  0  0  0  0
   -2.4370    3.1470    0.8530 C   0  0  0  0  0  0  0  0  0  0  0  0
   -1.3700    1.2650    1.9350 C   0  0  0  0  0  0  0  0  0  0  0  0
   -2.4430    2.1440    1.8210 C   0  0  0  0  0  0  0  0  0  0  0  0
    2.7050   -2.3580    0.6790 C   0  0  0  0  0  0  0  0  0  0  0  0
    3.4190   -3.5370    0.4290 C   0  0  0  0  0  0  0  0  0  0  0  0
    2.9300   -4.5140   -0.4300 C   0  0  0  0  0  0  0  0  0  0  0  0
   -1.2830    4.3380   -1.0750 C   0  0  0  0  0  0  0  0  0  0  0  0
   -3.6210    4.0880    0.7550 C   0  0  0  0  0  0  0  0  0  0  0  0
  1  2  2  0  0  0  0
  1  3  1  0  0  0  0
  1  6  2  0  0  0  0
  1  7  1  0  0  0  0
  2  5  1  0  0  0  0
  3  9  1  0  0  0  0
  3 15  2  0  0  0  0
  4  5  2  0  0  0  0
  4 11  1  0  0  0  0
  4 13  1  0  0  0  0
  5 17  1  0  0  0  0
  8 11  1  0  0  0  0
  8 12  1  0  0  0  0
  9 10  2  0  0  0  0
 10 14  1  0  0  0  0
 10 20  1  0  0  0  0
 11 19  2  0  0  0  0
 12 13  2  0  0  0  0
 14 16  2  0  0  0  0
 14 21  1  0  0  0  0
 15 16  1  0  0  0  0
 17 18  2  0  0  0  0
 18 19  1  0  0  0  0
M  CHG  1   7  -1
M  END
>  <NScode>
NS-018328981-0000

>  <a_acc>
2

>  <a_don>
2

>  <chiral>
0

>  <opr_nrot>
2

>  <Weight>
300.38199

>  <druglike>
1

>  <lip_druglike>
1

>  <lip_violation>
0

>  <logS>
-4.2844601

$$$$
