NS-020270417-0000
  MOE2022           3D

 29 31  0  0  0  0  0  0  0  0999 V2000
   -5.4740    2.8980   -0.3720 C   0  0  0  0  0  0  0  0  0  0  0  0
   -4.5820    3.4690   -1.3570 O   0  0  0  0  0  0  0  0  0  0  0  0
   -3.3080    3.8570   -0.9840 C   0  0  0  0  0  0  0  0  0  0  0  0
   -2.9500    5.1770   -1.2370 C   0  0  0  0  0  0  0  0  0  0  0  0
   -1.6940    5.6350   -0.8500 C   0  0  0  0  0  0  0  0  0  0  0  0
   -0.7980    4.7740   -0.2160 C   0  0  0  0  0  0  0  0  0  0  0  0
   -1.1370    3.4410    0.0290 C   0  0  0  0  0  0  0  0  0  0  0  0
   -0.1420    2.5240    0.7190 C   0  0  0  0  0  0  0  0  0  0  0  0
    1.2090    2.5740    0.1140 N   0  0  0  0  0  0  0  0  0  0  0  0
    1.1800    2.0940   -1.2810 C   0  0  0  0  0  0  0  0  0  0  0  0
    2.1890    1.8120    0.9220 C   0  0  0  0  0  0  0  0  0  0  0  0
    1.9070    0.3790    1.0420 N   0  0  0  0  0  0  0  0  0  0  0  0
    2.2540   -0.5830    0.1070 N   0  0  0  0  0  0  0  0  0  0  0  0
    1.8580   -1.7070    0.5880 C   0  0  0  0  0  0  0  0  0  0  0  0
    1.2670   -1.5010    1.8170 N   0  0  0  0  0  0  0  0  0  0  0  0
    1.2950   -0.1840    2.1400 C   0  0  0  0  0  0  0  0  0  0  0  0
    0.7270    0.5400    3.5480 S   0  0  0  0  0  0  0  0  0  0  0  0
    1.9970   -3.0240   -0.0410 C   0  0  0  0  0  0  0  0  0  0  0  0
    2.6100   -3.1130   -1.3020 C   0  0  0  0  0  0  0  0  0  0  0  0
    2.7680   -4.3400   -1.9420 C   0  0  0  0  0  0  0  0  0  0  0  0
    3.5250   -4.4100   -3.4950 Cl  0  0  0  0  0  0  0  0  0  0  0  0
    2.3180   -5.5140   -1.3390 C   0  0  0  0  0  0  0  0  0  0  0  0
    1.7080   -5.4580   -0.0920 C   0  0  0  0  0  0  0  0  0  0  0  0
    1.5460   -4.2280    0.5530 C   0  0  0  0  0  0  0  0  0  0  0  0
    0.9310   -4.1970    1.8020 O   0  0  0  0  0  0  0  0  0  0  0  0
    0.4350   -5.3380    2.5480 C   0  0  0  0  0  0  0  0  0  0  0  0
   -2.3960    2.9830   -0.3690 C   0  0  0  0  0  0  0  0  0  0  0  0
   -2.7180    1.6550   -0.1660 O   0  0  0  0  0  0  0  0  0  0  0  0
   -2.7240    0.7980   -1.3270 C   0  0  0  0  0  0  0  0  0  0  0  0
  1  2  1  0  0  0  0
  2  3  1  0  0  0  0
  3  4  1  0  0  0  0
  3 27  2  0  0  0  0
  4  5  2  0  0  0  0
  5  6  1  0  0  0  0
  6  7  2  0  0  0  0
  7  8  1  0  0  0  0
  7 27  1  0  0  0  0
  8  9  1  0  0  0  0
  9 10  1  0  0  0  0
  9 11  1  0  0  0  0
 11 12  1  0  0  0  0
 12 13  1  0  0  0  0
 12 16  1  0  0  0  0
 13 14  2  0  0  0  0
 14 15  1  0  0  0  0
 14 18  1  0  0  0  0
 15 16  1  0  0  0  0
 16 17  2  0  0  0  0
 18 19  1  0  0  0  0
 18 24  2  0  0  0  0
 19 20  2  0  0  0  0
 20 21  1  0  0  0  0
 20 22  1  0  0  0  0
 22 23  2  0  0  0  0
 23 24  1  0  0  0  0
 24 25  1  0  0  0  0
 25 26  1  0  0  0  0
 27 28  1  0  0  0  0
 28 29  1  0  0  0  0
M  END
>  <NScode>
NS-020270417-0000

>  <a_acc>
6

>  <a_don>
0

>  <chiral>
0

>  <opr_nrot>
8

>  <Weight>
434.948

>  <druglike>
1

>  <lip_druglike>
1

>  <lip_violation>
0

>  <logS>
-6.4394898

$$$$
