NS-020175012-0001
  MOE2022           3D

 14 14  0  0  1  0  0  0  0  0999 V2000
    6.0530    3.7650    0.1940 N   0  3  0  0  0  0  0  0  0  0  0  0
    5.7390    2.3240    0.2760 C   0  0  2  0  0  0  0  0  0  0  0  0
    7.0320    1.5000    0.1850 C   0  0  0  0  0  0  0  0  0  0  0  0
    6.7060   -0.0030    0.3360 C   0  0  0  0  0  0  0  0  0  0  0  0
    5.5300   -0.4870   -0.5450 C   0  0  0  0  0  0  0  0  0  0  0  0
    4.3560    0.3980   -0.4270 N   0  0  0  0  0  0  0  0  0  0  0  0
    4.7150    1.7810   -0.7510 C   0  0  0  0  0  0  0  0  0  0  0  0
    3.2940    0.1700    0.8320 S   0  0  0  0  0  0  0  0  0  0  0  0
    2.6860    1.4240    1.1140 O   0  0  0  0  0  0  0  0  0  0  0  0
    3.9880   -0.4520    1.9010 O   0  0  0  0  0  0  0  0  0  0  0  0
    2.0430   -0.9420    0.2220 C   0  0  0  0  0  0  0  0  0  0  0  0
    2.5100   -2.2530   -0.4250 C   0  0  0  0  0  0  0  0  0  0  0  0
    1.3530   -3.1370   -0.8360 C   0  0  0  0  0  0  0  0  0  0  0  0
    1.0340   -4.2630   -0.1840 C   0  0  0  0  0  0  0  0  0  0  0  0
  1  2  1  0  0  0  0
  2  3  1  0  0  0  0
  2  7  1  0  0  0  0
  3  4  1  0  0  0  0
  4  5  1  0  0  0  0
  5  6  1  0  0  0  0
  6  7  1  0  0  0  0
  6  8  1  0  0  0  0
  8  9  2  0  0  0  0
  8 10  2  0  0  0  0
  8 11  1  0  0  0  0
 11 12  1  0  0  0  0
 12 13  1  0  0  0  0
 13 14  2  0  0  0  0
M  CHG  1   1   1
M  END
>  <NScode>
NS-020175012-0001

>  <a_acc>
3

>  <a_don>
1

>  <chiral>
1

>  <opr_nrot>
5

>  <Weight>
218.321

>  <druglike>
1

>  <lip_druglike>
1

>  <lip_violation>
0

>  <logS>
-0.40992001

$$$$
