NS-019216417-0000
  MOE2022           3D

 30 33  0  0  1  0  0  0  0  0999 V2000
    3.5930  -24.4240    0.7920 N   0  0  0  0  0  0  0  0  0  0  0  0
    3.5700  -24.1320   -0.5450 C   0  0  0  0  0  0  0  0  0  0  0  0
    1.1580  -24.5580    0.7590 C   0  0  0  0  0  0  0  0  0  0  0  0
    2.3780  -24.6610    1.5160 C   0  0  0  0  0  0  0  0  0  0  0  0
    4.9130  -24.4490    1.2410 N   0  0  0  0  0  0  0  0  0  0  0  0
    5.6470  -24.1770    0.1820 C   0  0  0  0  0  0  0  0  0  0  0  0
    4.8500  -23.9770   -0.9470 C   0  0  0  0  0  0  0  0  0  0  0  0
    2.3470  -24.0490   -1.2410 N   0  0  0  0  0  0  0  0  0  0  0  0
    1.1600  -24.2680   -0.5770 C   0  0  0  0  0  0  0  0  0  0  0  0
   -1.3740  -24.6530    0.6950 N   0  0  0  0  0  0  0  0  0  0  0  0
    7.7540  -25.3830   -0.3470 N   0  0  0  0  0  0  0  0  0  0  0  0
   -0.1390  -24.7880    1.5150 C   0  0  0  0  0  0  0  0  0  0  0  0
   -2.5410  -24.4270    1.3410 C   0  0  0  0  0  0  0  0  0  0  0  0
    7.1770  -24.1120    0.1540 C   0  0  3  0  0  0  0  0  0  0  0  0
    7.9120  -25.5420   -1.6780 C   0  0  0  0  0  0  0  0  0  0  0  0
   -0.1020  -24.1540   -1.3940 C   0  0  0  0  0  0  0  0  0  0  0  0
   -1.2420  -24.9470   -0.7470 C   0  0  0  0  0  0  0  0  0  0  0  0
   -2.5580  -24.3290    2.5650 O   0  0  0  0  0  0  0  0  0  0  0  0
    2.4320  -24.9430    2.7210 O   0  0  0  0  0  0  0  0  0  0  0  0
    7.6970  -24.6160   -2.4560 O   0  0  0  0  0  0  0  0  0  0  0  0
   -3.8800  -24.3310    0.5650 C   0  0  0  0  0  0  0  0  0  0  0  0
    7.8230  -26.4640    0.6560 C   0  0  0  0  0  0  0  0  0  0  0  0
    7.8210  -23.6750    1.4910 C   0  0  0  0  0  0  0  0  0  0  0  0
    8.3580  -26.8780   -2.2890 C   0  0  0  0  0  0  0  0  0  0  0  0
   -4.9780  -23.5920    1.3540 C   0  0  0  0  0  0  0  0  0  0  0  0
   -4.4330  -25.7190    0.1850 C   0  0  0  0  0  0  0  0  0  0  0  0
    9.8790  -26.9920   -2.5050 C   0  0  0  0  0  0  0  0  0  0  0  0
    8.5360  -26.0210    1.9410 C   0  0  0  0  0  0  0  0  0  0  0  0
    7.8900  -24.7780    2.5600 C   0  0  0  0  0  0  0  0  0  0  0  0
   10.6890  -27.0730   -1.2050 C   0  0  0  0  0  0  0  0  0  0  0  0
  1  2  1  0  0  0  0
  1  4  1  0  0  0  0
  1  5  1  0  0  0  0
  2  7  2  0  0  0  0
  2  8  1  0  0  0  0
  3  4  1  0  0  0  0
  3  9  2  0  0  0  0
  3 12  1  0  0  0  0
  4 19  2  0  0  0  0
  5  6  2  0  0  0  0
  6  7  1  0  0  0  0
  6 14  1  0  0  0  0
  8  9  1  0  0  0  0
  9 16  1  0  0  0  0
 10 12  1  0  0  0  0
 10 13  1  0  0  0  0
 10 17  1  0  0  0  0
 11 14  1  0  0  0  0
 11 15  1  0  0  0  0
 11 22  1  0  0  0  0
 13 18  2  0  0  0  0
 13 21  1  0  0  0  0
 14 23  1  0  0  0  0
 15 20  2  0  0  0  0
 15 24  1  0  0  0  0
 16 17  1  0  0  0  0
 21 25  1  0  0  0  0
 21 26  1  0  0  0  0
 22 28  1  0  0  0  0
 23 29  1  0  0  0  0
 24 27  1  0  0  0  0
 27 30  1  0  0  0  0
 28 29  1  0  0  0  0
M  END
>  <NScode>
NS-019216417-0000

>  <a_acc>
5

>  <a_don>
1

>  <chiral>
1

>  <opr_nrot>
7

>  <Weight>
413.522

>  <druglike>
1

>  <lip_druglike>
1

>  <lip_violation>
0

>  <logS>
-3.0559199

$$$$
