NS-019757926-0000
  MOE2022           3D

 21 22  0  0  1  0  0  0  0  0999 V2000
    2.7410   -4.6550    0.3620 N   0  0  0  0  0  0  0  0  0  0  0  0
    3.1230   -6.8720   -0.5220 C   0  0  0  0  0  0  0  0  0  0  0  0
    2.9760   -5.5130   -0.7100 C   0  0  0  0  0  0  0  0  0  0  0  0
    2.6400   -3.1610    0.1000 C   0  0  1  0  0  0  0  0  0  0  0  0
    2.6170   -5.1540    1.6650 C   0  0  0  0  0  0  0  0  0  0  0  0
    2.9560   -7.4030    0.7980 C   0  0  0  0  0  0  0  0  0  0  0  0
    3.4500   -7.7730   -1.6330 C   0  0  0  0  0  0  0  0  0  0  0  0
    3.9650   -2.6090   -0.4630 C   0  0  0  0  0  0  0  0  0  0  0  0
    2.7080   -6.5710    1.8440 C   0  0  0  0  0  0  0  0  0  0  0  0
    1.4310   -2.6860   -0.7200 C   0  0  0  0  0  0  0  0  0  0  0  0
    4.1110   -1.1130   -0.3130 C   0  0  0  0  0  0  0  0  0  0  0  0
    4.2950   -0.6120    0.9110 N   0  0  0  0  0  0  0  0  0  0  0  0
    4.0700   -0.3410   -1.3980 N   0  0  0  0  0  0  0  0  0  0  0  0
    2.4640   -4.3700    2.6130 O   0  0  0  0  0  0  0  0  0  0  0  0
    3.3820   -9.0260   -1.4580 O   0  5  0  0  0  0  0  0  0  0  0  0
    0.5400   -2.0260   -0.1330 O   0  5  0  0  0  0  0  0  0  0  0  0
    3.8350   -7.3110   -2.7420 O   0  0  0  0  0  0  0  0  0  0  0  0
    1.3850   -2.9570   -1.9440 O   0  0  0  0  0  0  0  0  0  0  0  0
    4.3400    1.5350   -0.0240 C   0  0  0  0  0  0  0  0  0  0  0  0
    4.4030    0.6960    1.0740 C   0  0  0  0  0  0  0  0  0  0  0  0
    4.1710    0.9710   -1.2760 C   0  0  0  0  0  0  0  0  0  0  0  0
  1  3  1  0  0  0  0
  1  4  1  0  0  0  0
  1  5  1  0  0  0  0
  2  3  2  0  0  0  0
  2  6  1  0  0  0  0
  2  7  1  0  0  0  0
  4  8  1  0  0  0  0
  4 10  1  0  0  0  0
  5  9  1  0  0  0  0
  5 14  2  0  0  0  0
  6  9  2  0  0  0  0
  7 15  1  0  0  0  0
  7 17  2  0  0  0  0
  8 11  1  0  0  0  0
 10 16  1  0  0  0  0
 10 18  2  0  0  0  0
 11 12  1  0  0  0  0
 11 13  2  0  0  0  0
 12 20  2  0  0  0  0
 13 21  1  0  0  0  0
 19 20  1  0  0  0  0
 19 21  2  0  0  0  0
M  CHG  1  15  -1
M  CHG  1  16  -1
M  END
>  <NScode>
NS-019757926-0000

>  <a_acc>
5

>  <a_don>
4

>  <chiral>
1

>  <opr_nrot>
5

>  <Weight>
289.24698

>  <druglike>
1

>  <lip_druglike>
1

>  <lip_violation>
0

>  <logS>
-1.14967

$$$$
