NS-021674035-0000
  MOE2022           3D

 22 24  0  0  1  0  0  0  0  0999 V2000
   -3.5320    1.3060   -1.5650 C   0  0  0  0  0  0  0  0  0  0  0  0
   -3.3310    0.5140   -0.3410 N   0  0  0  0  0  0  0  0  0  0  0  0
   -4.3550    0.0000    0.4250 C   0  0  0  0  0  0  0  0  0  0  0  0
   -3.7780   -0.6770    1.4370 C   0  0  0  0  0  0  0  0  0  0  0  0
   -2.4340   -0.5540    1.2510 N   0  3  0  0  0  0  0  0  0  0  0  0
   -2.1490    0.1610    0.1800 C   0  0  0  0  0  0  0  0  0  0  0  0
   -0.7170    0.5020   -0.3200 C   0  0  3  0  0  0  0  0  0  0  0  0
    0.1840   -0.6770   -0.4880 N   0  0  0  0  0  0  0  0  0  0  0  0
    0.6480   -1.4600    0.5380 C   0  0  0  0  0  0  0  0  0  0  0  0
    0.1330   -1.2960    1.6370 O   0  0  0  0  0  0  0  0  0  0  0  0
    1.7020   -2.4500    0.2870 C   0  0  0  0  0  0  0  0  0  0  0  0
    2.5160   -2.4180   -0.8510 C   0  0  0  0  0  0  0  0  0  0  0  0
    3.4930   -3.3900   -1.0310 C   0  0  0  0  0  0  0  0  0  0  0  0
    3.6840   -4.3600   -0.1410 N   0  0  0  0  0  0  0  0  0  0  0  0
    2.9320   -4.4150    0.9560 C   0  0  0  0  0  0  0  0  0  0  0  0
    1.9370   -3.4790    1.2020 C   0  0  0  0  0  0  0  0  0  0  0  0
   -0.0430    1.6460    0.4930 C   0  0  0  0  0  0  0  0  0  0  0  0
   -0.9140    2.9220    0.5520 C   0  0  0  0  0  0  0  0  0  0  0  0
   -0.1840    4.0570    1.2790 C   0  0  0  0  0  0  0  0  0  0  0  0
    1.0430    4.3090    0.6160 O   0  0  0  0  0  0  0  0  0  0  0  0
    1.9470    3.2190    0.6780 C   0  0  0  0  0  0  0  0  0  0  0  0
    1.3470    2.0240   -0.0710 C   0  0  0  0  0  0  0  0  0  0  0  0
  1  2  1  0  0  0  0
  2  3  1  0  0  0  0
  2  6  1  0  0  0  0
  3  4  2  0  0  0  0
  4  5  1  0  0  0  0
  5  6  2  0  0  0  0
  6  7  1  0  0  0  0
  7  8  1  0  0  0  0
  7 17  1  0  0  0  0
  8  9  1  0  0  0  0
  9 10  2  0  0  0  0
  9 11  1  0  0  0  0
 11 12  1  0  0  0  0
 11 16  2  0  0  0  0
 12 13  2  0  0  0  0
 13 14  1  0  0  0  0
 14 15  2  0  0  0  0
 15 16  1  0  0  0  0
 17 18  1  0  0  0  0
 17 22  1  0  0  0  0
 18 19  1  0  0  0  0
 19 20  1  0  0  0  0
 20 21  1  0  0  0  0
 21 22  1  0  0  0  0
M  CHG  1   5   1
M  END
>  <NScode>
NS-021674035-0000

>  <a_acc>
4

>  <a_don>
1

>  <chiral>
1

>  <opr_nrot>
6

>  <Weight>
300.362

>  <druglike>
1

>  <lip_druglike>
1

>  <lip_violation>
0

>  <logS>
-1.14217

$$$$
