NS-017022253-0000
  MOE2022           3D

 26 28  0  0  0  0  0  0  0  0999 V2000
   -4.0080   14.8660    0.1110 S   0  0  0  0  0  0  0  0  0  0  0  0
   -3.9100   13.0500    0.1050 C   0  0  0  0  0  0  0  0  0  0  0  0
   -2.8250   12.4450   -0.4250 N   0  0  0  0  0  0  0  0  0  0  0  0
   -2.0680    3.8780    0.6500 C   0  0  0  0  0  0  0  0  0  0  0  0
   -2.6990   11.1250   -0.4250 N   0  0  0  0  0  0  0  0  0  0  0  0
   -2.9480    4.6870   -0.0480 N   0  0  0  0  0  0  0  0  0  0  0  0
   -2.1160    2.4350    0.3940 C   0  0  0  0  0  0  0  0  0  0  0  0
   -3.6470   10.3170    0.1070 C   0  0  0  0  0  0  0  0  0  0  0  0
   -4.5170   15.3200   -1.1370 O   0  0  0  0  0  0  0  0  0  0  0  0
   -4.7130   15.2870    1.2730 O   0  0  0  0  0  0  0  0  0  0  0  0
   -4.9080   12.2760    0.6810 C   0  0  0  0  0  0  0  0  0  0  0  0
   -3.4530    8.8680    0.0660 C   0  0  0  0  0  0  0  0  0  0  0  0
   -1.2900    4.3880    1.4440 O   0  0  0  0  0  0  0  0  0  0  0  0
   -0.9580    1.6620    0.5640 C   0  0  0  0  0  0  0  0  0  0  0  0
   -4.7780   10.8920    0.6810 C   0  0  0  0  0  0  0  0  0  0  0  0
   -3.0770    6.0910    0.0150 C   0  0  0  0  0  0  0  0  0  0  0  0
   -2.1790    8.3110    0.2670 C   0  0  0  0  0  0  0  0  0  0  0  0
   -4.5320    8.0000   -0.1750 C   0  0  0  0  0  0  0  0  0  0  0  0
   -2.3200   15.4060    0.2600 C   0  0  0  0  0  0  0  0  0  0  0  0
   -1.9870    6.9350    0.2420 C   0  0  0  0  0  0  0  0  0  0  0  0
   -4.3490    6.6230   -0.2000 C   0  0  0  0  0  0  0  0  0  0  0  0
   -0.9660    0.2940    0.3090 C   0  0  0  0  0  0  0  0  0  0  0  0
   -3.2970    1.7940   -0.0170 C   0  0  0  0  0  0  0  0  0  0  0  0
   -3.3060    0.4280   -0.2690 C   0  0  0  0  0  0  0  0  0  0  0  0
   -2.1440   -0.3210   -0.1080 C   0  0  0  0  0  0  0  0  0  0  0  0
    0.2900   -0.5270    0.4990 C   0  0  0  0  0  0  0  0  0  0  0  0
  1  2  1  0  0  0  0
  1  9  2  0  0  0  0
  1 10  2  0  0  0  0
  1 19  1  0  0  0  0
  2  3  1  0  0  0  0
  2 11  2  0  0  0  0
  3  5  2  0  0  0  0
  4  6  1  0  0  0  0
  4  7  1  0  0  0  0
  4 13  2  0  0  0  0
  5  8  1  0  0  0  0
  6 16  1  0  0  0  0
  7 14  2  0  0  0  0
  7 23  1  0  0  0  0
  8 12  1  0  0  0  0
  8 15  2  0  0  0  0
 11 15  1  0  0  0  0
 12 17  2  0  0  0  0
 12 18  1  0  0  0  0
 14 22  1  0  0  0  0
 16 20  2  0  0  0  0
 16 21  1  0  0  0  0
 17 20  1  0  0  0  0
 18 21  2  0  0  0  0
 22 25  2  0  0  0  0
 22 26  1  0  0  0  0
 23 24  2  0  0  0  0
 24 25  1  0  0  0  0
M  END
>  <NScode>
NS-017022253-0000

>  <a_acc>
5

>  <a_don>
1

>  <chiral>
0

>  <opr_nrot>
4

>  <Weight>
367.42899

>  <druglike>
1

>  <lip_druglike>
1

>  <lip_violation>
0

>  <logS>
-5.4106002

$$$$
