NS-021743467-0000
  MOE2022           3D

 31 35  0  0  0  0  0  0  0  0999 V2000
   -8.4070   -4.2190   -0.3380 O   0  5  0  0  0  0  0  0  0  0  0  0
   -8.2820   -3.0220   -0.1430 N   0  3  0  0  0  0  0  0  0  0  0  0
   -9.2810   -2.3370    0.0040 O   0  0  0  0  0  0  0  0  0  0  0  0
   -6.9560   -2.4150   -0.0850 C   0  0  0  0  0  0  0  0  0  0  0  0
   -6.8490   -1.0230    0.0720 C   0  0  0  0  0  0  0  0  0  0  0  0
   -5.5880   -0.4490    0.1320 C   0  0  0  0  0  0  0  0  0  0  0  0
   -4.4370   -1.2460    0.0370 C   0  0  0  0  0  0  0  0  0  0  0  0
   -3.1830   -0.6420    0.1090 N   0  0  0  0  0  0  0  0  0  0  0  0
   -2.1100   -1.3620    0.0330 C   0  0  0  0  0  0  0  0  0  0  0  0
   -0.7360   -0.9240    0.0980 C   0  0  0  0  0  0  0  0  0  0  0  0
   -0.3330    0.3750    0.1770 C   0  0  0  0  0  0  0  0  0  0  0  0
    1.0430    0.8310    0.2390 C   0  0  0  0  0  0  0  0  0  0  0  0
    1.4630    1.8740   -0.5990 C   0  0  0  0  0  0  0  0  0  0  0  0
    2.7740    2.3350   -0.5630 C   0  0  0  0  0  0  0  0  0  0  0  0
    3.6790    1.7560    0.3290 C   0  0  0  0  0  0  0  0  0  0  0  0
    4.9860    2.1630    0.4190 O   0  0  0  0  0  0  0  0  0  0  0  0
    5.5770    3.2510   -0.3460 C   0  0  0  0  0  0  0  0  0  0  0  0
    7.0150    3.5270    0.0450 C   0  0  0  0  0  0  0  0  0  0  0  0
    7.6910    2.8550    1.0160 C   0  0  0  0  0  0  0  0  0  0  0  0
    9.2860    3.4490    1.1740 S   0  0  0  0  0  0  0  0  0  0  0  0
    8.9410    4.5720   -0.0850 C   0  0  0  0  0  0  0  0  0  0  0  0
    7.7370    4.5060   -0.5790 N   0  0  0  0  0  0  0  0  0  0  0  0
    3.2780    0.7300    1.1800 C   0  0  0  0  0  0  0  0  0  0  0  0
    1.9660    0.2750    1.1390 C   0  0  0  0  0  0  0  0  0  0  0  0
    0.1510   -2.1470    0.0140 C   0  0  0  0  0  0  0  0  0  0  0  0
   -0.8250   -3.3040   -0.2190 C   0  0  0  0  0  0  0  0  0  0  0  0
   -2.1570   -2.7270   -0.1330 N   0  0  0  0  0  0  0  0  0  0  0  0
   -3.3390   -3.4160   -0.2210 C   0  0  0  0  0  0  0  0  0  0  0  0
   -3.2810   -4.6350   -0.3720 O   0  0  0  0  0  0  0  0  0  0  0  0
   -4.5560   -2.6400   -0.1250 C   0  0  0  0  0  0  0  0  0  0  0  0
   -5.8280   -3.2290   -0.1870 C   0  0  0  0  0  0  0  0  0  0  0  0
  1  2  1  0  0  0  0
  2  3  2  0  0  0  0
  2  4  1  0  0  0  0
  4  5  1  0  0  0  0
  4 31  2  0  0  0  0
  5  6  2  0  0  0  0
  6  7  1  0  0  0  0
  7  8  1  0  0  0  0
  7 30  2  0  0  0  0
  8  9  2  0  0  0  0
  9 10  1  0  0  0  0
  9 27  1  0  0  0  0
 10 11  2  0  0  0  0
 10 25  1  0  0  0  0
 11 12  1  0  0  0  0
 12 13  1  0  0  0  0
 12 24  2  0  0  0  0
 13 14  2  0  0  0  0
 14 15  1  0  0  0  0
 15 16  1  0  0  0  0
 15 23  2  0  0  0  0
 16 17  1  0  0  0  0
 17 18  1  0  0  0  0
 18 19  2  0  0  0  0
 18 22  1  0  0  0  0
 19 20  1  0  0  0  0
 20 21  1  0  0  0  0
 21 22  2  0  0  0  0
 23 24  1  0  0  0  0
 25 26  1  0  0  0  0
 26 27  1  0  0  0  0
 27 28  1  0  0  0  0
 28 29  2  0  0  0  0
 28 30  1  0  0  0  0
 30 31  1  0  0  0  0
M  CHG  1   1  -1
M  CHG  1   2   1
M  END
>  <NScode>
NS-021743467-0000

>  <a_acc>
4

>  <a_don>
0

>  <chiral>
0

>  <opr_nrot>
5

>  <Weight>
432.45999

>  <druglike>
1

>  <lip_druglike>
1

>  <lip_violation>
0

>  <logS>
-6.0305901

$$$$
