NS-011572072-0000
  MOE2022           3D

 14 15  0  0  0  0  0  0  0  0999 V2000
    8.4490    0.1660    0.0890 C   0  0  0  0  0  0  0  0  0  0  0  0
    7.4710   -0.1340   -0.8570 C   0  0  0  0  0  0  0  0  0  0  0  0
    6.2600    0.5530   -0.8600 C   0  0  0  0  0  0  0  0  0  0  0  0
    5.9990    1.5640    0.0810 C   0  0  0  0  0  0  0  0  0  0  0  0
    6.9950    1.8230    1.0410 C   0  0  0  0  0  0  0  0  0  0  0  0
    8.2100    1.1470    1.0440 C   0  0  0  0  0  0  0  0  0  0  0  0
    6.7830    2.7500    2.0080 O   0  0  0  0  0  0  0  0  0  0  0  0
    3.0370    3.4120    1.1940 C   0  0  0  0  0  0  0  0  0  0  0  0
    2.3790    3.7440    0.0120 C   0  0  0  0  0  0  0  0  0  0  0  0
    2.9330    3.3490   -1.1970 C   0  0  0  0  0  0  0  0  0  0  0  0
    4.1230    2.6380   -1.1750 C   0  0  0  0  0  0  0  0  0  0  0  0
    4.7410    2.3220    0.0420 C   0  0  0  0  0  0  0  0  0  0  0  0
    4.1800    2.7300    1.2000 N   0  0  0  0  0  0  0  0  0  0  0  0
    1.0750    4.5130    0.0490 C   0  0  0  0  0  0  0  0  0  0  0  0
  1  2  1  0  0  0  0
  1  6  2  0  0  0  0
  2  3  2  0  0  0  0
  3  4  1  0  0  0  0
  4  5  2  0  0  0  0
  4 12  1  0  0  0  0
  5  6  1  0  0  0  0
  5  7  1  0  0  0  0
  8  9  2  0  0  0  0
  8 13  1  0  0  0  0
  9 10  1  0  0  0  0
  9 14  1  0  0  0  0
 10 11  2  0  0  0  0
 11 12  1  0  0  0  0
 12 13  2  0  0  0  0
M  END
>  <NScode>
NS-011572072-0000

>  <a_acc>
2

>  <a_don>
1

>  <chiral>
0

>  <opr_nrot>
1

>  <Weight>
185.226

>  <druglike>
1

>  <lip_druglike>
1

>  <lip_violation>
0

>  <logS>
-2.3204401

$$$$
