NS-023463682-0000F6571-1716
  MOE2022           3D

 21 22  0  0  1  0  0  0  0  0999 V2000
   -0.4950    4.1870   -0.3940 C   0  0  0  0  0  0  0  0  0  0  0  0
   -1.8320    4.7570   -0.2250 C   0  0  0  0  0  0  0  0  0  0  0  0
   -2.5400    4.4250    0.8970 N   0  0  0  0  0  0  0  0  0  0  0  0
   -4.9320    3.9220    0.0560 C   0  0  3  0  0  0  0  0  0  0  0  0
   -0.2800    2.7970   -0.4840 C   0  0  0  0  0  0  0  0  0  0  0  0
    0.6030    5.0550   -0.4600 C   0  0  0  0  0  0  0  0  0  0  0  0
   -2.3470    5.5290   -1.0230 O   0  0  0  0  0  0  0  0  0  0  0  0
   -3.9840    4.7420    1.0480 C   0  0  0  0  0  0  0  0  0  0  0  0
   -5.2260    1.4580    0.4480 O   0  0  0  0  0  0  0  0  0  0  0  0
    1.0210    2.3130   -0.5970 C   0  0  0  0  0  0  0  0  0  0  0  0
   -6.3510    3.2810   -0.2470 C   0  0  0  0  0  0  0  0  0  0  0  0
    1.8980    4.5630   -0.5770 C   0  0  0  0  0  0  0  0  0  0  0  0
   -5.7820    5.0890    0.1110 O   0  0  0  0  0  0  0  0  0  0  0  0
    2.1020    3.1880   -0.6420 C   0  0  0  0  0  0  0  0  0  0  0  0
   -4.8400    2.6810    1.0450 C   0  0  0  0  0  0  0  0  0  0  0  0
   -7.9330    6.4470   -1.6660 O   0  0  0  0  0  0  0  0  0  0  0  0
   -6.1610    1.8030   -0.5160 C   0  0  0  0  0  0  0  0  0  0  0  0
   -1.4280    1.8020   -0.4710 C   0  0  0  0  0  0  0  0  0  0  0  0
   -5.6400    5.9660   -1.0280 C   0  0  0  0  0  0  0  0  0  0  0  0
   -6.7790    6.9890   -1.0410 C   0  0  0  0  0  0  0  0  0  0  0  0
    3.0770    5.5080   -0.6490 C   0  0  0  0  0  0  0  0  0  0  0  0
  1  2  1  0  0  0  0
  1  5  2  0  0  0  0
  1  6  1  0  0  0  0
  2  3  1  0  0  0  0
  2  7  2  0  0  0  0
  3  8  1  0  0  0  0
  4  8  1  0  0  0  0
  4 11  1  0  0  0  0
  4 13  1  0  0  0  0
  4 15  1  0  0  0  0
  5 10  1  0  0  0  0
  5 18  1  0  0  0  0
  6 12  2  0  0  0  0
  9 15  1  0  0  0  0
  9 17  1  0  0  0  0
 10 14  2  0  0  0  0
 11 17  1  0  0  0  0
 12 14  1  0  0  0  0
 12 21  1  0  0  0  0
 13 19  1  0  0  0  0
 16 20  1  0  0  0  0
 19 20  1  0  0  0  0
M  END
>  <NScode>
NS-023463682-0000

>  <a_acc>
4

>  <a_don>
2

>  <chiral>
1

>  <opr_nrot>
7

>  <Weight>
293.36301

>  <druglike>
1

>  <lip_druglike>
1

>  <lip_violation>
0

>  <logS>
-2.9122

$$$$
