NS-020244144-0001
  MOE2022           3D

 24 26  0  0  1  0  0  0  0  0999 V2000
    6.2710    7.3220    0.7200 C   0  0  0  0  0  0  0  0  0  0  0  0
    5.8680    6.6180   -0.5790 C   0  0  0  0  0  0  0  0  0  0  0  0
    4.6010    7.2530   -1.1610 C   0  0  0  0  0  0  0  0  0  0  0  0
    5.6850    5.1290   -0.3560 C   0  0  0  0  0  0  0  0  0  0  0  0
    6.4150    4.1160   -0.8950 C   0  0  0  0  0  0  0  0  0  0  0  0
    6.0400    2.8570   -0.5210 N   0  0  0  0  0  0  0  0  0  0  0  0
    5.0270    2.9070    0.3010 C   0  0  0  0  0  0  0  0  0  0  0  0
    4.3340    1.7080    0.9300 C   0  0  0  0  0  0  0  0  0  0  0  0
    4.9720    0.3300    0.6790 N   0  3  3  0  0  0  0  0  0  0  0  0
    6.3490    0.2330    1.3050 C   0  0  0  0  0  0  0  0  0  0  0  0
    7.1920   -0.9890    0.9160 C   0  0  0  0  0  0  0  0  0  0  0  0
    6.4080   -2.3020    0.7240 C   0  0  0  0  0  0  0  0  0  0  0  0
    5.8360   -2.4680   -0.6960 C   0  0  3  0  0  0  0  0  0  0  0  0
    4.6810   -1.5140   -1.0450 C   0  0  0  0  0  0  0  0  0  0  0  0
    4.9600   -0.0350   -0.7860 C   0  0  0  0  0  0  0  0  0  0  0  0
    5.4730   -3.8630   -0.9590 N   0  0  0  0  0  0  0  0  0  0  0  0
    4.2080   -4.3310   -0.5300 C   0  0  0  0  0  0  0  0  0  0  0  0
    3.2740   -4.6840   -1.5030 C   0  0  0  0  0  0  0  0  0  0  0  0
    2.0110   -5.0520   -1.0750 C   0  0  0  0  0  0  0  0  0  0  0  0
    1.7410   -5.0630    0.2960 C   0  0  0  0  0  0  0  0  0  0  0  0
    0.5160   -5.3920    0.7880 N   0  0  0  0  0  0  0  0  0  0  0  0
    2.6360   -4.7710    1.2270 N   0  0  0  0  0  0  0  0  0  0  0  0
    3.8630   -4.4310    0.8270 C   0  0  0  0  0  0  0  0  0  0  0  0
    4.4680    4.4940    0.6680 S   0  0  0  0  0  0  0  0  0  0  0  0
  1  2  1  0  0  0  0
  2  3  1  0  0  0  0
  2  4  1  0  0  0  0
  4  5  2  0  0  0  0
  4 24  1  0  0  0  0
  5  6  1  0  0  0  0
  6  7  2  0  0  0  0
  7  8  1  0  0  0  0
  7 24  1  0  0  0  0
  8  9  1  0  0  0  0
  9 10  1  0  0  0  0
  9 15  1  0  0  0  0
 10 11  1  0  0  0  0
 11 12  1  0  0  0  0
 12 13  1  0  0  0  0
 13 14  1  0  0  0  0
 13 16  1  0  0  0  0
 14 15  1  0  0  0  0
 16 17  1  0  0  0  0
 17 18  1  0  0  0  0
 17 23  2  0  0  0  0
 18 19  2  0  0  0  0
 19 20  1  0  0  0  0
 20 21  1  0  0  0  0
 20 22  2  0  0  0  0
 22 23  1  0  0  0  0
M  CHG  1   9   1
M  END
>  <NScode>
NS-020244144-0001

>  <a_acc>
3

>  <a_don>
2

>  <chiral>
1

>  <opr_nrot>
8

>  <Weight>
345.51498

>  <druglike>
1

>  <lip_druglike>
1

>  <lip_violation>
0

>  <logS>
-1.79366

$$$$
