NS-016219998-0000
  MOE2022           3D

 22 25  0  0  0  0  0  0  0  0999 V2000
    0.0860    3.8910   -1.9060 C   0  0  0  0  0  0  0  0  0  0  0  0
    0.7580    3.3570   -0.8710 C   0  0  0  0  0  0  0  0  0  0  0  0
    2.2170    4.0070   -2.3940 N   0  0  0  0  0  0  0  0  0  0  0  0
    0.9690    4.2890   -2.8330 O   0  0  0  0  0  0  0  0  0  0  0  0
   -1.3090    4.0240   -2.0540 N   0  0  0  0  0  0  0  0  0  0  0  0
    2.0940    3.4560   -1.2330 C   0  0  0  0  0  0  0  0  0  0  0  0
   -1.9820    4.6420   -3.0740 C   0  0  0  0  0  0  0  0  0  0  0  0
   -4.9860    3.0660    0.1280 C   0  0  0  0  0  0  0  0  0  0  0  0
   -4.9840    4.1330    0.9980 C   0  0  0  0  0  0  0  0  0  0  0  0
   -5.4790    1.9430    0.7040 O   0  0  0  0  0  0  0  0  0  0  0  0
   -5.4770    3.7960    2.2140 O   0  0  0  0  0  0  0  0  0  0  0  0
   -5.8400    2.3830    2.0580 C   0  0  0  0  0  0  0  0  0  0  0  0
   -4.5220    3.1940   -1.1730 C   0  0  0  0  0  0  0  0  0  0  0  0
   -1.3930    5.1740   -3.9880 O   0  0  0  0  0  0  0  0  0  0  0  0
   -4.0450    4.4420   -1.5920 C   0  0  0  0  0  0  0  0  0  0  0  0
   -3.4930    4.6190   -2.9980 C   0  0  0  0  0  0  0  0  0  0  0  0
   -4.5170    5.3790    0.6060 C   0  0  0  0  0  0  0  0  0  0  0  0
    0.2450    2.7280    0.4090 C   0  0  0  0  0  0  0  0  0  0  0  0
   -4.0440    5.5270   -0.7000 C   0  0  0  0  0  0  0  0  0  0  0  0
    3.2380    2.9830   -0.3620 C   0  0  0  0  0  0  0  0  0  0  0  0
    1.2740    2.7870    1.5650 C   0  0  0  0  0  0  0  0  0  0  0  0
    2.7610    2.7140    1.0950 C   0  0  0  0  0  0  0  0  0  0  0  0
  1  2  2  0  0  0  0
  1  4  1  0  0  0  0
  1  5  1  0  0  0  0
  2  6  1  0  0  0  0
  2 18  1  0  0  0  0
  3  4  1  0  0  0  0
  3  6  2  0  0  0  0
  5  7  1  0  0  0  0
  6 20  1  0  0  0  0
  7 14  2  0  0  0  0
  7 16  1  0  0  0  0
  8  9  1  0  0  0  0
  8 10  1  0  0  0  0
  8 13  2  0  0  0  0
  9 11  1  0  0  0  0
  9 17  2  0  0  0  0
 10 12  1  0  0  0  0
 11 12  1  0  0  0  0
 13 15  1  0  0  0  0
 15 16  1  0  0  0  0
 15 19  2  0  0  0  0
 17 19  1  0  0  0  0
 18 21  1  0  0  0  0
 20 22  1  0  0  0  0
 21 22  1  0  0  0  0
M  END
>  <NScode>
NS-016219998-0000

>  <a_acc>
4

>  <a_don>
1

>  <chiral>
0

>  <opr_nrot>
4

>  <Weight>
300.314

>  <druglike>
1

>  <lip_druglike>
1

>  <lip_violation>
0

>  <logS>
-3.41786

$$$$
