NS-006502400-0000
  MOE2022           3D

 34 40  0  0  0  0  0  0  0  0999 V2000
    5.2930   -2.3120   -0.9580 C   0  0  0  0  0  0  0  0  0  0  0  0
    6.2100   -3.1850   -0.4460 C   0  0  0  0  0  0  0  0  0  0  0  0
    4.1480   -2.9980   -1.2920 N   0  0  0  0  0  0  0  0  0  0  0  0
    4.3350   -4.3450   -1.0070 C   0  0  0  0  0  0  0  0  0  0  0  0
    5.6390   -4.4810   -0.4660 C   0  0  0  0  0  0  0  0  0  0  0  0
    5.5260   -0.9610   -1.1020 N   0  0  0  0  0  0  0  0  0  0  0  0
    7.4720   -2.6850   -0.0160 C   0  0  0  0  0  0  0  0  0  0  0  0
    7.6550   -1.3070   -0.1430 N   0  0  0  0  0  0  0  0  0  0  0  0
    3.4720   -5.3200   -1.2020 N   0  0  0  0  0  0  0  0  0  0  0  0
    6.1200   -5.6510   -0.0900 N   0  0  0  0  0  0  0  0  0  0  0  0
    6.6680   -0.5000   -0.7080 C   0  0  0  0  0  0  0  0  0  0  0  0
    2.9150   -2.3980   -1.7680 C   0  0  0  0  0  0  0  0  0  0  0  0
    8.9380   -0.7230    0.2800 C   0  0  0  0  0  0  0  0  0  0  0  0
    3.9490   -6.5410   -0.8160 C   0  0  0  0  0  0  0  0  0  0  0  0
    5.2670   -6.7040   -0.2630 C   0  0  0  0  0  0  0  0  0  0  0  0
    0.2170   -2.4870    0.8890 C   0  0  0  0  0  0  0  0  0  0  0  0
    8.8750    0.7340    0.6880 C   0  0  0  0  0  0  0  0  0  0  0  0
    0.3290   -1.2320    1.4440 C   0  0  0  0  0  0  0  0  0  0  0  0
    8.4110   -3.3440    0.4440 O   0  0  0  0  0  0  0  0  0  0  0  0
   -0.7540   -3.2210    1.4880 O   0  0  0  0  0  0  0  0  0  0  0  0
    9.1260    1.7110   -0.2250 O   0  0  0  0  0  0  0  0  0  0  0  0
   -0.5590   -1.0420    2.4510 O   0  0  0  0  0  0  0  0  0  0  0  0
   -1.2780   -2.3180    2.5170 C   0  0  0  0  0  0  0  0  0  0  0  0
    1.0380   -2.8900   -0.1540 C   0  0  0  0  0  0  0  0  0  0  0  0
    1.9880   -1.9860   -0.6430 C   0  0  0  0  0  0  0  0  0  0  0  0
    8.5700    1.3040    1.8760 C   0  0  0  0  0  0  0  0  0  0  0  0
    8.9820    2.9020    0.4060 C   0  0  0  0  0  0  0  0  0  0  0  0
    8.6400    2.6900    1.6970 C   0  0  0  0  0  0  0  0  0  0  0  0
    1.2670   -0.3220    0.9810 C   0  0  0  0  0  0  0  0  0  0  0  0
    2.1020   -0.7090   -0.0700 C   0  0  0  0  0  0  0  0  0  0  0  0
    5.6940   -8.0010    0.1140 C   0  0  0  0  0  0  0  0  0  0  0  0
    3.1250   -7.6830   -0.9640 C   0  0  0  0  0  0  0  0  0  0  0  0
    4.8670   -9.0890   -0.0450 C   0  0  0  0  0  0  0  0  0  0  0  0
    3.5720   -8.9290   -0.5880 C   0  0  0  0  0  0  0  0  0  0  0  0
  1  2  2  0  0  0  0
  1  3  1  0  0  0  0
  1  6  1  0  0  0  0
  2  5  1  0  0  0  0
  2  7  1  0  0  0  0
  3  4  1  0  0  0  0
  3 12  1  0  0  0  0
  4  5  2  0  0  0  0
  4  9  1  0  0  0  0
  5 10  1  0  0  0  0
  6 11  2  0  0  0  0
  7  8  1  0  0  0  0
  7 19  2  0  0  0  0
  8 11  1  0  0  0  0
  8 13  1  0  0  0  0
  9 14  2  0  0  0  0
 10 15  2  0  0  0  0
 12 25  1  0  0  0  0
 13 17  1  0  0  0  0
 14 15  1  0  0  0  0
 14 32  1  0  0  0  0
 15 31  1  0  0  0  0
 16 18  1  0  0  0  0
 16 20  1  0  0  0  0
 16 24  2  0  0  0  0
 17 21  1  0  0  0  0
 17 26  2  0  0  0  0
 18 22  1  0  0  0  0
 18 29  2  0  0  0  0
 20 23  1  0  0  0  0
 21 27  1  0  0  0  0
 22 23  1  0  0  0  0
 24 25  1  0  0  0  0
 25 30  2  0  0  0  0
 26 28  1  0  0  0  0
 27 28  2  0  0  0  0
 29 30  1  0  0  0  0
 31 33  2  0  0  0  0
 32 34  2  0  0  0  0
 33 34  1  0  0  0  0
M  END
>  <NScode>
NS-006502400-0000

>  <a_acc>
6

>  <a_don>
0

>  <chiral>
0

>  <opr_nrot>
4

>  <Weight>
451.44199

>  <druglike>
1

>  <lip_druglike>
1

>  <lip_violation>
0

>  <logS>
-6.697

$$$$
