NS-019883817-0000
  MOE2022           3D

 17 18  0  0  1  0  0  0  0  0999 V2000
   -0.3030    0.2680   -1.0770 C   0  0  0  0  0  0  0  0  0  0  0  0
   -0.7240    0.3420    0.2280 N   0  0  0  0  0  0  0  0  0  0  0  0
    1.0340    0.2550   -1.3510 N   0  0  0  0  0  0  0  0  0  0  0  0
   -2.0630    0.9130    0.5020 C   0  0  3  0  0  0  0  0  0  0  0  0
   -3.0190   -1.5030    0.7690 N   0  3  3  0  0  0  0  0  0  0  0  0
   -0.4940   -0.8930    1.0060 C   0  0  0  0  0  0  0  0  0  0  0  0
   -3.1800   -0.1010    0.1340 C   0  0  0  0  0  0  0  0  0  0  0  0
   -1.0950    0.1110   -1.9940 O   0  0  0  0  0  0  0  0  0  0  0  0
    4.2580    0.9890    1.1900 N   0  0  0  0  0  0  0  0  0  0  0  0
   -1.5530   -1.9760    0.6820 C   0  0  0  0  0  0  0  0  0  0  0  0
    2.1070    0.5270   -0.4820 C   0  0  0  0  0  0  0  0  0  0  0  0
    2.0370    1.5040    0.5080 C   0  0  0  0  0  0  0  0  0  0  0  0
    3.2850   -0.1960   -0.6300 C   0  0  0  0  0  0  0  0  0  0  0  0
   -3.9980   -2.5150    0.1910 C   0  0  0  0  0  0  0  0  0  0  0  0
    4.3420    0.0620    0.2320 C   0  0  0  0  0  0  0  0  0  0  0  0
    3.1380    1.7040    1.3290 C   0  0  0  0  0  0  0  0  0  0  0  0
   -2.2660    2.3010   -0.1250 C   0  0  0  0  0  0  0  0  0  0  0  0
  1  2  1  0  0  0  0
  1  3  1  0  0  0  0
  1  8  2  0  0  0  0
  2  4  1  0  0  0  0
  2  6  1  0  0  0  0
  3 11  1  0  0  0  0
  4  7  1  0  0  0  0
  4 17  1  0  0  0  0
  5  7  1  0  0  0  0
  5 10  1  0  0  0  0
  5 14  1  0  0  0  0
  6 10  1  0  0  0  0
  9 15  2  0  0  0  0
  9 16  1  0  0  0  0
 11 12  1  0  0  0  0
 11 13  2  0  0  0  0
 12 16  2  0  0  0  0
 13 15  1  0  0  0  0
M  CHG  1   5   1
M  END
>  <NScode>
NS-019883817-0000

>  <a_acc>
3

>  <a_don>
1

>  <chiral>
1

>  <opr_nrot>
3

>  <Weight>
234.30299

>  <druglike>
1

>  <lip_druglike>
1

>  <lip_violation>
0

>  <logS>
-0.43799999

$$$$
