NS-013386892-0000
  MOE2022           3D

 35 38  0  0  1  0  0  0  0  0999 V2000
   -0.4670   -0.2970    0.4250 N   0  0  0  0  0  0  0  0  0  0  0  0
   -2.8750    0.3130    1.0880 C   0  0  0  0  0  0  0  0  0  0  0  0
    0.0620   -1.5630    0.7610 C   0  0  0  0  0  0  0  0  0  0  0  0
   -1.3740    0.3180    1.4380 C   0  0  3  0  0  0  0  0  0  0  0  0
   -0.1790    0.3210   -0.7820 C   0  0  0  0  0  0  0  0  0  0  0  0
    3.2630    0.1540   -2.3130 C   0  0  0  0  0  0  0  0  0  0  0  0
    4.3250    1.1170   -2.5430 C   0  0  0  0  0  0  0  0  0  0  0  0
   -3.2820    0.8410   -0.0720 N   0  0  0  0  0  0  0  0  0  0  0  0
    1.3930   -1.7180    1.1780 C   0  0  0  0  0  0  0  0  0  0  0  0
    2.0270    0.6140   -1.9680 N   0  0  0  0  0  0  0  0  0  0  0  0
    4.0800    2.8280   -2.3570 S   0  0  0  0  0  0  0  0  0  0  0  0
   -0.8000   -2.6550    0.6720 C   0  0  0  0  0  0  0  0  0  0  0  0
   -0.8260    1.6290    1.9940 C   0  0  0  0  0  0  0  0  0  0  0  0
   -3.6980   -0.1990    1.8430 O   0  0  0  0  0  0  0  0  0  0  0  0
    0.8500   -0.2570   -1.7540 C   0  0  0  0  0  0  0  0  0  0  0  0
    5.6230    0.8490   -2.9190 C   0  0  0  0  0  0  0  0  0  0  0  0
    1.8390   -3.0000    1.4900 C   0  0  0  0  0  0  0  0  0  0  0  0
    5.7190    3.1490   -2.7860 C   0  0  0  0  0  0  0  0  0  0  0  0
   -0.7610    1.3550   -1.0590 O   0  0  0  0  0  0  0  0  0  0  0  0
    3.4070   -1.0590   -2.4020 O   0  0  0  0  0  0  0  0  0  0  0  0
   -0.7640    4.0170    1.9950 N   0  0  0  0  0  0  0  0  0  0  0  0
    6.4100    2.0000   -3.0570 C   0  0  0  0  0  0  0  0  0  0  0  0
   -0.3330   -3.9230    0.9930 C   0  0  0  0  0  0  0  0  0  0  0  0
    0.9890   -4.1030    1.3960 C   0  0  0  0  0  0  0  0  0  0  0  0
   -4.6560    0.9070   -0.5220 C   0  0  0  0  0  0  0  0  0  0  0  0
   -1.2460    2.8720    1.5120 C   0  0  0  0  0  0  0  0  0  0  0  0
    2.3800   -0.5690    1.3030 C   0  0  0  0  0  0  0  0  0  0  0  0
    0.1310    1.5960    3.0040 C   0  0  0  0  0  0  0  0  0  0  0  0
    0.1500    3.9960    2.9610 C   0  0  0  0  0  0  0  0  0  0  0  0
    1.4930   -5.4850    1.7470 C   0  0  0  0  0  0  0  0  0  0  0  0
   -4.9420   -0.1710   -1.5600 C   0  0  0  0  0  0  0  0  0  0  0  0
   -4.9060    2.1930   -1.2980 C   0  0  0  0  0  0  0  0  0  0  0  0
    0.6220    2.7990    3.4890 C   0  0  0  0  0  0  0  0  0  0  0  0
   -6.1620    1.8810   -2.1160 C   0  0  0  0  0  0  0  0  0  0  0  0
   -6.1380    0.3650   -2.3550 C   0  0  0  0  0  0  0  0  0  0  0  0
  1  3  1  0  0  0  0
  1  4  1  0  0  0  0
  1  5  1  0  0  0  0
  2  4  1  0  0  0  0
  2  8  1  0  0  0  0
  2 14  2  0  0  0  0
  3  9  2  0  0  0  0
  3 12  1  0  0  0  0
  4 13  1  0  0  0  0
  5 15  1  0  0  0  0
  5 19  2  0  0  0  0
  6  7  1  0  0  0  0
  6 10  1  0  0  0  0
  6 20  2  0  0  0  0
  7 11  1  0  0  0  0
  7 16  2  0  0  0  0
  8 25  1  0  0  0  0
  9 17  1  0  0  0  0
  9 27  1  0  0  0  0
 10 15  1  0  0  0  0
 11 18  1  0  0  0  0
 12 23  2  0  0  0  0
 13 26  2  0  0  0  0
 13 28  1  0  0  0  0
 16 22  1  0  0  0  0
 17 24  2  0  0  0  0
 18 22  2  0  0  0  0
 21 26  1  0  0  0  0
 21 29  2  0  0  0  0
 23 24  1  0  0  0  0
 24 30  1  0  0  0  0
 25 31  1  0  0  0  0
 25 32  1  0  0  0  0
 28 33  2  0  0  0  0
 29 33  1  0  0  0  0
 31 35  1  0  0  0  0
 32 34  1  0  0  0  0
 34 35  1  0  0  0  0
M  END
>  <NScode>
NS-013386892-0000

>  <a_acc>
4

>  <a_don>
2

>  <chiral>
1

>  <opr_nrot>
9

>  <Weight>
490.62799

>  <druglike>
0

>  <lip_druglike>
1

>  <lip_violation>
0

>  <logS>
-5.5007601

$$$$
