NS-049972653-0000
  MOE2022           3D

 23 25  0  0  1  0  0  0  0  0999 V2000
    4.2560    6.0030    1.2380 F   0  0  0  0  0  0  0  0  0  0  0  0
    3.0230    5.6840    0.7860 C   0  0  0  0  0  0  0  0  0  0  0  0
    2.2430    6.7500    1.0670 F   0  0  0  0  0  0  0  0  0  0  0  0
    3.0540    5.3890   -0.7120 C   0  0  0  0  0  0  0  0  0  0  0  0
    2.3850    4.0180   -0.9020 C   0  0  0  0  0  0  0  0  0  0  0  0
    2.6420    3.2930    0.4350 C   0  0  3  0  0  0  0  0  0  0  0  0
    1.6860    2.1210    0.7010 C   0  0  0  0  0  0  0  0  0  0  0  0
    1.8610    0.9550   -0.2850 C   0  0  0  0  0  0  0  0  0  0  0  0
    0.9250   -0.1520   -0.0380 N   0  0  0  0  0  0  0  0  0  0  0  0
    1.2500   -1.1540    0.8510 C   0  0  0  0  0  0  0  0  0  0  0  0
    2.3530   -1.1700    1.3570 O   0  0  0  0  0  0  0  0  0  0  0  0
    0.2240   -2.2030    1.1750 C   0  0  0  0  0  0  0  0  0  0  0  0
   -0.6440   -2.5130   -0.0420 C   0  0  3  0  0  0  0  0  0  0  0  0
   -1.0880   -1.2500   -0.6000 N   0  0  0  0  0  0  0  0  0  0  0  0
   -0.2970   -0.1550   -0.6960 C   0  0  0  0  0  0  0  0  0  0  0  0
   -0.6710    0.7910   -1.3680 O   0  0  0  0  0  0  0  0  0  0  0  0
   -1.8420   -3.4420    0.2690 C   0  0  0  0  0  0  0  0  0  0  0  0
   -1.3930   -4.8020    0.8490 C   0  0  0  0  0  0  0  0  0  0  0  0
   -2.5800   -5.7550    1.0280 C   0  0  0  0  0  0  0  0  0  0  0  0
   -3.2450   -5.9280   -0.2130 O   0  0  0  0  0  0  0  0  0  0  0  0
   -3.8020   -4.7270   -0.7210 C   0  0  0  0  0  0  0  0  0  0  0  0
   -2.6820   -3.7180   -0.9990 C   0  0  0  0  0  0  0  0  0  0  0  0
    2.5010    4.4230    1.4660 C   0  0  0  0  0  0  0  0  0  0  0  0
  1  2  1  0  0  0  0
  2  3  1  0  0  0  0
  2  4  1  0  0  0  0
  2 23  1  0  0  0  0
  4  5  1  0  0  0  0
  5  6  1  0  0  0  0
  6  7  1  0  0  0  0
  6 23  1  0  0  0  0
  7  8  1  0  0  0  0
  8  9  1  0  0  0  0
  9 10  1  0  0  0  0
  9 15  1  0  0  0  0
 10 11  2  0  0  0  0
 10 12  1  0  0  0  0
 12 13  1  0  0  0  0
 13 14  1  0  0  0  0
 13 17  1  0  0  0  0
 14 15  1  0  0  0  0
 15 16  2  0  0  0  0
 17 18  1  0  0  0  0
 17 22  1  0  0  0  0
 18 19  1  0  0  0  0
 19 20  1  0  0  0  0
 20 21  1  0  0  0  0
 21 22  1  0  0  0  0
M  END
>  <NScode>
NS-049972653-0000

>  <a_acc>
3

>  <a_don>
1

>  <chiral>
2

>  <opr_nrot>
7

>  <Weight>
330.375

>  <druglike>
1

>  <lip_druglike>
1

>  <lip_violation>
0

>  <logS>
-2.4233501

$$$$
