NS-012609060-0000
  MOE2022           3D

 28 31  0  0  1  0  0  0  0  0999 V2000
   -0.0330    0.3950   -0.7500 N   0  0  0  0  0  0  0  0  0  0  0  0
    0.8730    0.4140    0.2790 C   0  0  0  0  0  0  0  0  0  0  0  0
    0.0750   -0.7570   -1.4630 C   0  0  0  0  0  0  0  0  0  0  0  0
    1.6570   -0.6850    0.2140 N   0  0  0  0  0  0  0  0  0  0  0  0
    1.1680   -1.5810   -0.8220 C   0  0  3  0  0  0  0  0  0  0  0  0
    6.0780   -3.0840    0.4280 N   0  0  0  0  0  0  0  0  0  0  0  0
    6.3670   -3.6310   -0.7860 C   0  0  0  0  0  0  0  0  0  0  0  0
    7.6070   -3.4450   -1.1150 N   0  0  0  0  0  0  0  0  0  0  0  0
    2.2660   -2.0090   -1.8060 C   0  0  0  0  0  0  0  0  0  0  0  0
    7.2100   -2.5120    0.9100 C   0  0  0  0  0  0  0  0  0  0  0  0
    8.1620   -2.7430   -0.0630 C   0  0  0  0  0  0  0  0  0  0  0  0
   -1.0600    1.3990   -0.9450 C   0  0  0  0  0  0  0  0  0  0  0  0
    3.2770   -2.9780   -1.2160 C   0  0  0  0  0  0  0  0  0  0  0  0
   -0.5990   -1.0030   -2.4440 O   0  0  0  0  0  0  0  0  0  0  0  0
    4.2300   -3.4220   -2.0290 N   0  0  0  0  0  0  0  0  0  0  0  0
    0.9630    1.2820    1.1280 O   0  0  0  0  0  0  0  0  0  0  0  0
    3.2170   -3.3290   -0.0420 O   0  0  0  0  0  0  0  0  0  0  0  0
    5.2870   -4.3320   -1.5770 C   0  0  0  0  0  0  0  0  0  0  0  0
   -2.3490    1.0530   -0.2310 C   0  0  0  0  0  0  0  0  0  0  0  0
    7.4770   -1.8160    2.0960 C   0  0  0  0  0  0  0  0  0  0  0  0
    9.4640   -2.2640    0.1350 C   0  0  0  0  0  0  0  0  0  0  0  0
   -2.5430    1.4380    1.0950 C   0  0  0  0  0  0  0  0  0  0  0  0
   -3.3430    0.3270   -0.8860 C   0  0  0  0  0  0  0  0  0  0  0  0
    9.7610   -1.5700    1.3010 C   0  0  0  0  0  0  0  0  0  0  0  0
    8.7670   -1.3460    2.2820 C   0  0  0  0  0  0  0  0  0  0  0  0
   -3.7250    1.1150    1.7540 C   0  0  0  0  0  0  0  0  0  0  0  0
   -4.5260    0.0040   -0.2280 C   0  0  0  0  0  0  0  0  0  0  0  0
   -4.7180    0.4000    1.0920 C   0  0  0  0  0  0  0  0  0  0  0  0
  1  2  1  0  0  0  0
  1  3  1  0  0  0  0
  1 12  1  0  0  0  0
  2  4  1  0  0  0  0
  2 16  2  0  0  0  0
  3  5  1  0  0  0  0
  3 14  2  0  0  0  0
  4  5  1  0  0  0  0
  5  9  1  0  0  0  0
  6  7  1  0  0  0  0
  6 10  1  0  0  0  0
  7  8  2  0  0  0  0
  7 18  1  0  0  0  0
  8 11  1  0  0  0  0
  9 13  1  0  0  0  0
 10 11  2  0  0  0  0
 10 20  1  0  0  0  0
 11 21  1  0  0  0  0
 12 19  1  0  0  0  0
 13 15  1  0  0  0  0
 13 17  2  0  0  0  0
 15 18  1  0  0  0  0
 19 22  2  0  0  0  0
 19 23  1  0  0  0  0
 20 25  2  0  0  0  0
 21 24  2  0  0  0  0
 22 26  1  0  0  0  0
 23 27  2  0  0  0  0
 24 25  1  0  0  0  0
 26 28  2  0  0  0  0
 27 28  1  0  0  0  0
M  END
>  <NScode>
NS-012609060-0000

>  <a_acc>
5

>  <a_don>
4

>  <chiral>
1

>  <opr_nrot>
6

>  <Weight>
377.40399

>  <druglike>
1

>  <lip_druglike>
1

>  <lip_violation>
0

>  <logS>
-3.7943399

$$$$
