NS-019025579-0000
  MOE2022           3D

 27 29  0  0  0  0  0  0  0  0999 V2000
    0.9880   -2.8770    0.3040 C   0  0  0  0  0  0  0  0  0  0  0  0
   -0.0240   -2.0670   -0.1210 C   0  0  0  0  0  0  0  0  0  0  0  0
    2.3530   -2.6100    0.5830 N   0  0  0  0  0  0  0  0  0  0  0  0
    0.0250   -0.6460   -0.4120 C   0  0  0  0  0  0  0  0  0  0  0  0
    0.4980   -4.1160    0.4540 N   0  0  0  0  0  0  0  0  0  0  0  0
   -0.8280   -4.1470    0.1330 N   0  0  0  0  0  0  0  0  0  0  0  0
   -1.1290   -2.9230   -0.2100 C   0  0  0  0  0  0  0  0  0  0  0  0
   -1.1630   -0.0280   -0.7300 N   0  0  0  0  0  0  0  0  0  0  0  0
   -1.4490    1.3280   -1.0550 C   0  0  0  0  0  0  0  0  0  0  0  0
    3.3980   -2.7770   -0.3040 C   0  0  0  0  0  0  0  0  0  0  0  0
    2.8610   -2.2500    1.8160 C   0  0  0  0  0  0  0  0  0  0  0  0
   -0.4830    2.2430   -1.4840 C   0  0  0  0  0  0  0  0  0  0  0  0
    4.2160   -2.2010    1.6970 C   0  0  0  0  0  0  0  0  0  0  0  0
    4.5510   -2.5300    0.3770 C   0  0  0  0  0  0  0  0  0  0  0  0
   -3.1740    3.0310   -1.2430 C   0  0  0  0  0  0  0  0  0  0  0  0
   -2.7920    1.7220   -0.9480 C   0  0  0  0  0  0  0  0  0  0  0  0
   -2.2100    3.9520   -1.6550 C   0  0  0  0  0  0  0  0  0  0  0  0
   -0.8680    3.5530   -1.7740 C   0  0  0  0  0  0  0  0  0  0  0  0
    1.0470    0.0270   -0.3770 O   0  0  0  0  0  0  0  0  0  0  0  0
   -2.7010    5.5740   -2.0130 Cl  0  0  0  0  0  0  0  0  0  0  0  0
   -3.7270    0.7660   -0.5440 O   0  0  0  0  0  0  0  0  0  0  0  0
    0.0670    4.4950   -2.1900 O   0  0  0  0  0  0  0  0  0  0  0  0
    1.2170   -5.2950    0.9000 C   0  0  0  0  0  0  0  0  0  0  0  0
    1.9770   -1.9610    3.0100 C   0  0  0  0  0  0  0  0  0  0  0  0
    3.1870   -3.1460   -1.7570 C   0  0  0  0  0  0  0  0  0  0  0  0
   -5.1390    1.0240   -0.3510 C   0  0  0  0  0  0  0  0  0  0  0  0
    1.4960    4.2720   -2.2520 C   0  0  0  0  0  0  0  0  0  0  0  0
  1  2  2  0  0  0  0
  1  3  1  0  0  0  0
  1  5  1  0  0  0  0
  2  4  1  0  0  0  0
  2  7  1  0  0  0  0
  3 10  1  0  0  0  0
  3 11  1  0  0  0  0
  4  8  1  0  0  0  0
  4 19  2  0  0  0  0
  5  6  1  0  0  0  0
  5 23  1  0  0  0  0
  6  7  2  0  0  0  0
  8  9  1  0  0  0  0
  9 12  1  0  0  0  0
  9 16  2  0  0  0  0
 10 14  2  0  0  0  0
 10 25  1  0  0  0  0
 11 13  2  0  0  0  0
 11 24  1  0  0  0  0
 12 18  2  0  0  0  0
 13 14  1  0  0  0  0
 15 16  1  0  0  0  0
 15 17  2  0  0  0  0
 16 21  1  0  0  0  0
 17 18  1  0  0  0  0
 17 20  1  0  0  0  0
 18 22  1  0  0  0  0
 21 26  1  0  0  0  0
 22 27  1  0  0  0  0
M  END
>  <NScode>
NS-019025579-0000

>  <a_acc>
4

>  <a_don>
1

>  <chiral>
0

>  <opr_nrot>
5

>  <Weight>
388.85498

>  <druglike>
1

>  <lip_druglike>
1

>  <lip_violation>
0

>  <logS>
-3.6191001

$$$$
