NS-016328712-0000
  MOE2022           3D

 21 22  0  0  1  0  0  0  0  0999 V2000
   -0.4560   -1.4630   -0.6370 N   0  0  0  0  0  0  0  0  0  0  0  0
    0.3850   -2.5400   -0.7680 C   0  0  0  0  0  0  0  0  0  0  0  0
   -1.5610   -1.8060    0.0870 C   0  0  0  0  0  0  0  0  0  0  0  0
   -0.1400   -3.6080   -0.1340 N   0  0  0  0  0  0  0  0  0  0  0  0
   -1.4430   -3.2840    0.4220 C   0  0  3  0  0  0  0  0  0  0  0  0
    1.4510   -2.5370   -1.3550 O   0  0  0  0  0  0  0  0  0  0  0  0
   -2.4180   -1.0000    0.3870 O   0  0  0  0  0  0  0  0  0  0  0  0
   -2.5450   -4.1800   -0.1870 C   0  0  0  0  0  0  0  0  0  0  0  0
   -0.1850   -0.1380   -1.1950 C   0  0  0  0  0  0  0  0  0  0  0  0
    2.1780    4.0260   -1.3280 C   0  0  0  0  0  0  0  0  0  0  0  0
    3.1810    4.9400   -1.0110 C   0  0  0  0  0  0  0  0  0  0  0  0
    2.1900    2.7700   -0.7320 C   0  0  0  0  0  0  0  0  0  0  0  0
    3.1810    6.5110   -1.7420 Cl  0  0  0  0  0  0  0  0  0  0  0  0
    1.1770    1.9050   -1.0780 O   0  0  0  0  0  0  0  0  0  0  0  0
    0.9960    0.5780   -0.5330 C   0  0  0  0  0  0  0  0  0  0  0  0
   -3.7310   -4.4950    0.7460 C   0  0  0  0  0  0  0  0  0  0  0  0
    4.1910    3.3340    0.4840 C   0  0  0  0  0  0  0  0  0  0  0  0
    4.1880    4.5960   -0.1060 C   0  0  0  0  0  0  0  0  0  0  0  0
    3.1920    2.4130    0.1750 C   0  0  0  0  0  0  0  0  0  0  0  0
   -4.6900   -5.4530    0.0270 C   0  0  0  0  0  0  0  0  0  0  0  0
   -4.5120   -3.2460    1.1720 C   0  0  0  0  0  0  0  0  0  0  0  0
  1  2  1  0  0  0  0
  1  3  1  0  0  0  0
  1  9  1  0  0  0  0
  2  4  1  0  0  0  0
  2  6  2  0  0  0  0
  3  5  1  0  0  0  0
  3  7  2  0  0  0  0
  4  5  1  0  0  0  0
  5  8  1  0  0  0  0
  8 16  1  0  0  0  0
  9 15  1  0  0  0  0
 10 11  2  0  0  0  0
 10 12  1  0  0  0  0
 11 13  1  0  0  0  0
 11 18  1  0  0  0  0
 12 14  1  0  0  0  0
 12 19  2  0  0  0  0
 14 15  1  0  0  0  0
 16 20  1  0  0  0  0
 16 21  1  0  0  0  0
 17 18  2  0  0  0  0
 17 19  1  0  0  0  0
M  END
>  <NScode>
NS-016328712-0000

>  <a_acc>
3

>  <a_don>
1

>  <chiral>
1

>  <opr_nrot>
6

>  <Weight>
310.78101

>  <druglike>
1

>  <lip_druglike>
1

>  <lip_violation>
0

>  <logS>
-4.1729202

$$$$
