NS-008785831-0000
  MOE2022           3D

 14 14  0  0  0  0  0  0  0  0999 V2000
    1.0980    5.3130    0.2670 C   0  0  0  0  0  0  0  0  0  0  0  0
    1.6120    4.4590   -1.2010 S   0  0  0  0  0  0  0  0  0  0  0  0
    0.6610    4.7170   -2.2250 O   0  0  0  0  0  0  0  0  0  0  0  0
    2.9670    4.8020   -1.4650 O   0  0  0  0  0  0  0  0  0  0  0  0
    1.5330    2.7140   -0.7490 C   0  0  0  0  0  0  0  0  0  0  0  0
    2.6990    2.0080   -0.4330 C   0  0  0  0  0  0  0  0  0  0  0  0
    2.6630    0.6430   -0.1070 C   0  0  0  0  0  0  0  0  0  0  0  0
    1.4200   -0.0020   -0.1070 C   0  0  0  0  0  0  0  0  0  0  0  0
    0.2570    0.6920   -0.4220 C   0  0  0  0  0  0  0  0  0  0  0  0
    0.3140    2.0400   -0.7470 C   0  0  0  0  0  0  0  0  0  0  0  0
    3.9270   -0.1650    0.2280 C   0  0  0  0  0  0  0  0  0  0  0  0
    4.1410   -1.2280   -0.8520 C   0  0  0  0  0  0  0  0  0  0  0  0
    3.7460   -0.8130    1.5290 N   0  3  0  0  0  0  0  0  0  0  0  0
    5.1920    0.6990    0.3000 C   0  0  0  0  0  0  0  0  0  0  0  0
  1  2  1  0  0  0  0
  2  3  2  0  0  0  0
  2  4  2  0  0  0  0
  2  5  1  0  0  0  0
  5  6  1  0  0  0  0
  5 10  2  0  0  0  0
  6  7  2  0  0  0  0
  7  8  1  0  0  0  0
  7 11  1  0  0  0  0
  8  9  2  0  0  0  0
  9 10  1  0  0  0  0
 11 12  1  0  0  0  0
 11 13  1  0  0  0  0
 11 14  1  0  0  0  0
M  CHG  1  13   1
M  END
>  <NScode>
NS-008785831-0000

>  <a_acc>
3

>  <a_don>
1

>  <chiral>
0

>  <opr_nrot>
2

>  <Weight>
213.30099

>  <druglike>
1

>  <lip_druglike>
1

>  <lip_violation>
0

>  <logS>
-1.84491

$$$$
