NS-024275605-0000(1-ethyl-1H-pyrazol-3-yl)[3-(3-fluorophenoxy)-1-pyrrolidinyl...
  MOE2022           3D

 22 24  0  0  1  0  0  0  0  0999 V2000
    1.2420    3.1360    0.1210 C   0  0  0  0  0  0  0  0  0  0  0  0
   -0.0440    3.2060   -0.2370 N   0  0  0  0  0  0  0  0  0  0  0  0
    1.5690    0.6370    0.1070 N   0  0  0  0  0  0  0  0  0  0  0  0
    2.0630    1.9200    0.3070 C   0  0  0  0  0  0  0  0  0  0  0  0
    1.7310    4.4330    0.3110 C   0  0  0  0  0  0  0  0  0  0  0  0
   -0.3410    4.5190   -0.2700 N   0  0  0  0  0  0  0  0  0  0  0  0
    0.7190    5.2890    0.0620 C   0  0  0  0  0  0  0  0  0  0  0  0
    0.2170    0.2730   -0.2960 C   0  0  0  0  0  0  0  0  0  0  0  0
    2.3210   -0.5750    0.3770 C   0  0  0  0  0  0  0  0  0  0  0  0
    3.2470    1.9720    0.6530 O   0  0  0  0  0  0  0  0  0  0  0  0
    0.2140   -1.2330   -0.5570 C   0  0  3  0  0  0  0  0  0  0  0  0
   -0.6280   -3.9770   -1.3170 C   0  0  0  0  0  0  0  0  0  0  0  0
   -1.4260   -3.1380   -0.5390 C   0  0  0  0  0  0  0  0  0  0  0  0
   -1.0700   -1.8370   -0.2660 O   0  0  0  0  0  0  0  0  0  0  0  0
    1.3220   -1.7330    0.3780 C   0  0  0  0  0  0  0  0  0  0  0  0
   -1.0680   -5.2750   -1.5320 C   0  0  0  0  0  0  0  0  0  0  0  0
   -0.3050   -6.1030   -2.2810 F   0  0  0  0  0  0  0  0  0  0  0  0
   -1.6750    5.0020   -0.5970 C   0  0  0  0  0  0  0  0  0  0  0  0
   -3.0490   -4.9040   -0.2340 C   0  0  0  0  0  0  0  0  0  0  0  0
   -2.6310   -3.5930   -0.0020 C   0  0  0  0  0  0  0  0  0  0  0  0
   -2.2610   -5.7570   -1.0060 C   0  0  0  0  0  0  0  0  0  0  0  0
   -2.6020    5.1620    0.6190 C   0  0  0  0  0  0  0  0  0  0  0  0
  1  2  2  0  0  0  0
  1  4  1  0  0  0  0
  1  5  1  0  0  0  0
  2  6  1  0  0  0  0
  3  4  1  0  0  0  0
  3  8  1  0  0  0  0
  3  9  1  0  0  0  0
  4 10  2  0  0  0  0
  5  7  2  0  0  0  0
  6  7  1  0  0  0  0
  6 18  1  0  0  0  0
  8 11  1  0  0  0  0
  9 15  1  0  0  0  0
 11 14  1  0  0  0  0
 11 15  1  0  0  0  0
 12 13  2  0  0  0  0
 12 16  1  0  0  0  0
 13 14  1  0  0  0  0
 13 20  1  0  0  0  0
 16 17  1  0  0  0  0
 16 21  2  0  0  0  0
 18 22  1  0  0  0  0
 19 20  2  0  0  0  0
 19 21  1  0  0  0  0
M  END
>  <NScode>
NS-024275605-0000

>  <a_acc>
3

>  <a_don>
0

>  <chiral>
1

>  <opr_nrot>
5

>  <Weight>
303.33701

>  <druglike>
1

>  <lip_druglike>
1

>  <lip_violation>
0

>  <logS>
-2.7255099

$$$$
