NS-014283678-0000
  MOE2022           3D

 33 36  0  0  0  0  0  0  0  0999 V2000
   -4.3460    2.2330    0.0990 N   0  0  0  0  0  0  0  0  0  0  0  0
   -4.8300    1.6590    1.3020 C   0  0  0  0  0  0  0  0  0  0  0  0
   -4.9790    1.9220   -1.1120 C   0  0  0  0  0  0  0  0  0  0  0  0
   -6.1060    1.0360   -1.0550 C   0  0  0  0  0  0  0  0  0  0  0  0
   -5.8920    0.8910    1.3080 N   0  0  0  0  0  0  0  0  0  0  0  0
   -6.5240    0.5660    0.1440 C   0  0  0  0  0  0  0  0  0  0  0  0
   -3.2540    3.1570    0.0810 C   0  0  0  0  0  0  0  0  0  0  0  0
   -3.3730    4.3840    0.7340 C   0  0  0  0  0  0  0  0  0  0  0  0
   -4.0560    2.0200    2.8250 S   0  0  0  0  0  0  0  0  0  0  0  0
   -7.0350    0.4930   -2.4380 S   0  0  0  0  0  0  0  0  0  0  0  0
   -2.2840    5.2490    0.7500 C   0  0  0  0  0  0  0  0  0  0  0  0
   -4.5470    2.4410   -2.1550 O   0  0  0  0  0  0  0  0  0  0  0  0
   -1.6670    0.8210    1.7510 C   0  0  0  0  0  0  0  0  0  0  0  0
   -0.3080    0.8660    1.5510 N   0  0  0  0  0  0  0  0  0  0  0  0
   -2.0800    2.8020   -0.5900 C   0  0  0  0  0  0  0  0  0  0  0  0
   -1.0870    4.8950    0.0920 C   0  0  0  0  0  0  0  0  0  0  0  0
   -7.7330   -0.3280    0.0980 C   0  0  0  0  0  0  0  0  0  0  0  0
   -2.3540    0.0020    1.1760 O   0  0  0  0  0  0  0  0  0  0  0  0
   -0.9960    3.6730   -0.5840 C   0  0  0  0  0  0  0  0  0  0  0  0
   -2.2300    1.8820    2.6790 C   0  0  0  0  0  0  0  0  0  0  0  0
    0.4740    0.0300    0.7150 C   0  0  0  0  0  0  0  0  0  0  0  0
   -8.0630   -0.5930   -1.3830 C   0  0  0  0  0  0  0  0  0  0  0  0
    2.1090   -1.5160   -0.9030 C   0  0  0  0  0  0  0  0  0  0  0  0
   -2.4820    6.4320    1.4500 O   0  0  0  0  0  0  0  0  0  0  0  0
    1.6200    0.5960    0.1490 C   0  0  0  0  0  0  0  0  0  0  0  0
    0.1470   -1.3100    0.4800 C   0  0  0  0  0  0  0  0  0  0  0  0
    0.0130    5.7430    0.1180 O   0  0  0  0  0  0  0  0  0  0  0  0
    0.9690   -2.0810   -0.3360 C   0  0  0  0  0  0  0  0  0  0  0  0
    2.4410   -0.1790   -0.6650 C   0  0  0  0  0  0  0  0  0  0  0  0
    2.8860   -2.3330   -1.6970 O   0  0  0  0  0  0  0  0  0  0  0  0
   -1.6190    7.5900    1.4980 C   0  0  0  0  0  0  0  0  0  0  0  0
    1.1560    5.6640   -0.7670 C   0  0  0  0  0  0  0  0  0  0  0  0
    4.1210   -1.9390   -2.3360 C   0  0  0  0  0  0  0  0  0  0  0  0
  1  2  1  0  0  0  0
  1  3  1  0  0  0  0
  1  7  1  0  0  0  0
  2  5  2  0  0  0  0
  2  9  1  0  0  0  0
  3  4  1  0  0  0  0
  3 12  2  0  0  0  0
  4  6  2  0  0  0  0
  4 10  1  0  0  0  0
  5  6  1  0  0  0  0
  6 17  1  0  0  0  0
  7  8  2  0  0  0  0
  7 15  1  0  0  0  0
  8 11  1  0  0  0  0
  9 20  1  0  0  0  0
 10 22  1  0  0  0  0
 11 16  2  0  0  0  0
 11 24  1  0  0  0  0
 13 14  1  0  0  0  0
 13 18  2  0  0  0  0
 13 20  1  0  0  0  0
 14 21  1  0  0  0  0
 15 19  2  0  0  0  0
 16 19  1  0  0  0  0
 16 27  1  0  0  0  0
 17 22  1  0  0  0  0
 21 25  1  0  0  0  0
 21 26  2  0  0  0  0
 23 28  2  0  0  0  0
 23 29  1  0  0  0  0
 23 30  1  0  0  0  0
 24 31  1  0  0  0  0
 25 29  2  0  0  0  0
 26 28  1  0  0  0  0
 27 32  1  0  0  0  0
 30 33  1  0  0  0  0
M  END
>  <NScode>
NS-014283678-0000

>  <a_acc>
6

>  <a_don>
1

>  <chiral>
0

>  <opr_nrot>
8

>  <Weight>
485.58499

>  <druglike>
1

>  <lip_druglike>
1

>  <lip_violation>
0

>  <logS>
-6.9668698

$$$$
