NS-042460598-0000
  MOE2022           3D

 20 22  0  0  1  0  0  0  0  0999 V2000
   -0.7230    3.7710    0.6330 C   0  0  0  0  0  0  0  0  0  0  0  0
    0.7840    3.7220    0.3680 C   0  0  3  0  0  0  0  0  0  0  0  0
    1.0000    3.3510   -0.9860 O   0  0  0  0  0  0  0  0  0  0  0  0
    2.3280    3.6040   -1.4600 C   0  0  0  0  0  0  0  0  0  0  0  0
    3.4060    3.5820   -0.3550 C   0  0  0  0  0  0  0  0  0  0  0  0
    3.0460    2.5920    0.7650 C   0  0  0  0  0  0  0  0  0  0  0  0
    1.5810    2.7470    1.2670 C   0  0  3  0  0  0  0  0  0  0  0  0
    0.9060    1.3940    1.4020 C   0  0  0  0  0  0  0  0  0  0  0  0
    0.7070    0.8760    2.4800 O   0  0  0  0  0  0  0  0  0  0  0  0
    0.5620    0.7730    0.2380 N   0  0  0  0  0  0  0  0  0  0  0  0
   -0.0130   -0.4820    0.0420 C   0  0  0  0  0  0  0  0  0  0  0  0
   -0.1780   -0.9170   -1.1720 N   0  0  0  0  0  0  0  0  0  0  0  0
   -0.7550   -2.1530   -1.1360 C   0  0  0  0  0  0  0  0  0  0  0  0
   -1.0280   -2.6480    0.1020 C   0  0  0  0  0  0  0  0  0  0  0  0
   -0.5400   -1.5300    1.3100 S   0  0  0  0  0  0  0  0  0  0  0  0
   -1.6530   -3.9870    0.4400 C   0  0  0  0  0  0  0  0  0  0  0  0
   -1.9370   -4.0690    1.8660 O   0  0  0  0  0  0  0  0  0  0  0  0
   -0.8920   -5.2230   -0.1400 C   0  0  0  0  0  0  0  0  0  0  0  0
   -1.9970   -5.4560   -1.0630 O   0  0  0  0  0  0  0  0  0  0  0  0
   -2.8420   -4.4200   -0.4780 C   0  0  0  0  0  0  0  0  0  0  0  0
  1  2  1  0  0  0  0
  2  3  1  0  0  0  0
  2  7  1  0  0  0  0
  3  4  1  0  0  0  0
  4  5  1  0  0  0  0
  5  6  1  0  0  0  0
  6  7  1  0  0  0  0
  7  8  1  0  0  0  0
  8  9  2  0  0  0  0
  8 10  1  0  0  0  0
 10 11  1  0  0  0  0
 11 12  2  0  0  0  0
 11 15  1  0  0  0  0
 12 13  1  0  0  0  0
 13 14  2  0  0  0  0
 14 15  1  0  0  0  0
 14 16  1  0  0  0  0
 16 17  1  0  0  0  0
 16 18  1  0  0  0  0
 16 20  1  0  0  0  0
 18 19  1  0  0  0  0
 19 20  1  0  0  0  0
M  END
>  <NScode>
NS-042460598-0000

>  <a_acc>
5

>  <a_don>
2

>  <chiral>
2

>  <opr_nrot>
5

>  <Weight>
298.36301

>  <druglike>
1

>  <lip_druglike>
1

>  <lip_violation>
0

>  <logS>
-2.05247

$$$$
