NS-019597859-0000
  MOE2022           3D

 19 19  0  0  1  0  0  0  0  0999 V2000
   -2.8100    0.4430    0.6760 C   0  0  0  0  0  0  0  0  0  0  0  0
   -3.1830    2.1140    0.9420 S   0  0  0  0  0  0  0  0  0  0  0  0
   -2.2100   -0.3880    1.8020 C   0  0  3  0  0  0  0  0  0  0  0  0
   -3.7330    2.2870   -0.6860 C   0  0  0  0  0  0  0  0  0  0  0  0
   -0.7180   -0.1310    1.9860 C   0  0  0  0  0  0  0  0  0  0  0  0
   -3.1010    0.0680   -0.6080 C   0  0  0  0  0  0  0  0  0  0  0  0
    4.3910   -0.4890   -0.1410 C   0  0  0  0  0  0  0  0  0  0  0  0
   -3.6270    1.1180   -1.3820 C   0  0  0  0  0  0  0  0  0  0  0  0
    3.8720   -0.4550   -1.2470 O   0  0  0  0  0  0  0  0  0  0  0  0
   -0.1930   -0.1450    3.0940 O   0  0  0  0  0  0  0  0  0  0  0  0
    3.7100   -0.7620    0.9900 N   0  0  0  0  0  0  0  0  0  0  0  0
    0.0270    0.0400    0.8880 N   0  0  0  0  0  0  0  0  0  0  0  0
   -4.3790    3.9400   -1.3180 Br  0  0  0  0  0  0  0  0  0  0  0  0
    5.6890   -0.2470    0.0780 O   0  0  0  0  0  0  0  0  0  0  0  0
   -2.5270   -1.8890    1.6470 C   0  0  0  0  0  0  0  0  0  0  0  0
    2.2630   -0.9760    1.0060 C   0  0  0  0  0  0  0  0  0  0  0  0
    1.4590    0.3260    0.9150 C   0  0  0  0  0  0  0  0  0  0  0  0
    6.5530    0.0570   -1.0350 C   0  0  0  0  0  0  0  0  0  0  0  0
    7.9860    0.3020   -0.5710 C   0  0  0  0  0  0  0  0  0  0  0  0
  1  2  1  0  0  0  0
  1  3  1  0  0  0  0
  1  6  2  0  0  0  0
  2  4  1  0  0  0  0
  3  5  1  0  0  0  0
  3 15  1  0  0  0  0
  4  8  2  0  0  0  0
  4 13  1  0  0  0  0
  5 10  2  0  0  0  0
  5 12  1  0  0  0  0
  6  8  1  0  0  0  0
  7  9  2  0  0  0  0
  7 11  1  0  0  0  0
  7 14  1  0  0  0  0
 11 16  1  0  0  0  0
 12 17  1  0  0  0  0
 14 18  1  0  0  0  0
 16 17  1  0  0  0  0
 18 19  1  0  0  0  0
M  END
>  <NScode>
NS-019597859-0000

>  <a_acc>
2

>  <a_don>
2

>  <chiral>
1

>  <opr_nrot>
6

>  <Weight>
349.24899

>  <druglike>
1

>  <lip_druglike>
1

>  <lip_violation>
0

>  <logS>
-3.57917

$$$$
