NS-023516722-0000
  MOE2022           3D

 13 13  0  0  0  0  0  0  0  0999 V2000
    4.9650    1.2750   -0.2530 C   0  0  0  0  0  0  0  0  0  0  0  0
    3.8210    0.4930   -0.3410 C   0  0  0  0  0  0  0  0  0  0  0  0
    2.5700    1.1010   -0.3150 C   0  0  0  0  0  0  0  0  0  0  0  0
    2.4390    2.4910   -0.2060 C   0  0  0  0  0  0  0  0  0  0  0  0
    3.6040    3.2710   -0.1350 C   0  0  0  0  0  0  0  0  0  0  0  0
    4.8550    2.6560   -0.1530 C   0  0  0  0  0  0  0  0  0  0  0  0
    1.0730    3.1970   -0.1840 C   0  0  0  0  0  0  0  0  0  0  0  0
   -0.2520    2.4120   -0.0200 C   0  0  0  0  0  0  0  0  0  0  0  0
   -0.5450    1.3430   -1.4660 S   0  0  0  0  0  0  0  0  0  0  0  0
   -1.4130    3.4160    0.0080 C   0  0  0  0  0  0  0  0  0  0  0  0
   -0.3380    1.5870    1.2740 C   0  0  0  0  0  0  0  0  0  0  0  0
    3.5560    4.7860   -0.0370 C   0  0  0  0  0  0  0  0  0  0  0  0
    3.9310   -1.0120   -0.4460 C   0  0  0  0  0  0  0  0  0  0  0  0
  1  2  1  0  0  0  0
  1  6  2  0  0  0  0
  2  3  2  0  0  0  0
  2 13  1  0  0  0  0
  3  4  1  0  0  0  0
  4  5  2  0  0  0  0
  4  7  1  0  0  0  0
  5  6  1  0  0  0  0
  5 12  1  0  0  0  0
  7  8  1  0  0  0  0
  8  9  1  0  0  0  0
  8 10  1  0  0  0  0
  8 11  1  0  0  0  0
M  END
>  <NScode>
NS-023516722-0000

>  <a_acc>
0

>  <a_don>
0

>  <chiral>
0

>  <opr_nrot>
2

>  <Weight>
194.342

>  <druglike>
0

>  <lip_druglike>
1

>  <lip_violation>
0

>  <logS>
-4.0106301

$$$$
