NS-019231364-0000
  MOE2022           3D

 28 31  0  0  0  0  0  0  0  0999 V2000
    0.1370    4.8000   -0.3380 S   0  0  0  0  0  0  0  0  0  0  0  0
   -1.5110    4.1320   -0.2410 C   0  0  0  0  0  0  0  0  0  0  0  0
   -1.8040    2.9150   -0.6070 N   0  0  0  0  0  0  0  0  0  0  0  0
   -0.9110    1.9990   -1.0890 N   0  0  0  0  0  0  0  0  0  0  0  0
    1.1040    3.4330   -0.9440 C   0  0  0  0  0  0  0  0  0  0  0  0
   -2.4980    5.0640    0.2750 C   0  0  0  0  0  0  0  0  0  0  0  0
    0.5150    2.1960   -1.2430 C   0  0  0  0  0  0  0  0  0  0  0  0
   -3.8420    4.7280    0.5020 N   0  0  0  0  0  0  0  0  0  0  0  0
    0.6090    5.1280    0.9690 O   0  0  0  0  0  0  0  0  0  0  0  0
    0.1880    5.8430   -1.3120 O   0  0  0  0  0  0  0  0  0  0  0  0
   -1.5530    0.7060   -1.4340 C   0  0  0  0  0  0  0  0  0  0  0  0
   -2.2240    6.2340    0.5560 O   0  0  0  0  0  0  0  0  0  0  0  0
   -0.4950   -3.6260    2.2810 C   0  0  0  0  0  0  0  0  0  0  0  0
   -0.3720   -4.9360    1.9830 C   0  0  0  0  0  0  0  0  0  0  0  0
   -1.2700   -0.4300   -0.4620 C   0  0  0  0  0  0  0  0  0  0  0  0
    2.4800    3.5930   -1.1200 C   0  0  0  0  0  0  0  0  0  0  0  0
   -0.7620   -2.5540    1.3200 C   0  0  0  0  0  0  0  0  0  0  0  0
    1.3160    1.1360   -1.6970 C   0  0  0  0  0  0  0  0  0  0  0  0
   -1.1260   -1.7340   -0.9360 C   0  0  0  0  0  0  0  0  0  0  0  0
   -1.1670   -0.1960    0.9090 C   0  0  0  0  0  0  0  0  0  0  0  0
   -0.9140   -1.2440    1.7870 C   0  0  0  0  0  0  0  0  0  0  0  0
   -0.8730   -2.7820   -0.0580 C   0  0  0  0  0  0  0  0  0  0  0  0
   -4.4870    3.4260    0.3940 C   0  0  0  0  0  0  0  0  0  0  0  0
   -4.8280    5.6970    0.9610 C   0  0  0  0  0  0  0  0  0  0  0  0
    3.2670    2.5430   -1.5790 C   0  0  0  0  0  0  0  0  0  0  0  0
    2.6830    1.3150   -1.8640 C   0  0  0  0  0  0  0  0  0  0  0  0
   -6.2000    5.0400    0.8330 C   0  0  0  0  0  0  0  0  0  0  0  0
   -5.8740    3.5540    1.0220 C   0  0  0  0  0  0  0  0  0  0  0  0
  1  2  1  0  0  0  0
  1  5  1  0  0  0  0
  1  9  2  0  0  0  0
  1 10  2  0  0  0  0
  2  3  2  0  0  0  0
  2  6  1  0  0  0  0
  3  4  1  0  0  0  0
  4  7  1  0  0  0  0
  4 11  1  0  0  0  0
  5  7  2  0  0  0  0
  5 16  1  0  0  0  0
  6  8  1  0  0  0  0
  6 12  2  0  0  0  0
  7 18  1  0  0  0  0
  8 23  1  0  0  0  0
  8 24  1  0  0  0  0
 11 15  1  0  0  0  0
 13 14  2  0  0  0  0
 13 17  1  0  0  0  0
 15 19  1  0  0  0  0
 15 20  2  0  0  0  0
 16 25  2  0  0  0  0
 17 21  2  0  0  0  0
 17 22  1  0  0  0  0
 18 26  2  0  0  0  0
 19 22  2  0  0  0  0
 20 21  1  0  0  0  0
 23 28  1  0  0  0  0
 24 27  1  0  0  0  0
 25 26  1  0  0  0  0
 27 28  1  0  0  0  0
M  END
>  <NScode>
NS-019231364-0000

>  <a_acc>
4

>  <a_don>
0

>  <chiral>
0

>  <opr_nrot>
5

>  <Weight>
395.483

>  <druglike>
1

>  <lip_druglike>
1

>  <lip_violation>
0

>  <logS>
-5.44243

$$$$
