NS-017847782-0000
  MOE2022           3D

 25 27  0  0  1  0  0  0  0  0999 V2000
    0.3010    1.6770   -1.5910 C   0  0  0  0  0  0  0  0  0  0  0  0
   -0.4540    1.7710   -2.7260 N   0  0  0  0  0  0  0  0  0  0  0  0
   -2.6600    0.6820   -1.3240 N   0  3  3  0  0  0  0  0  0  0  0  0
   -0.2010    1.7960   -0.4770 O   0  0  0  0  0  0  0  0  0  0  0  0
   -1.6530    2.6410   -2.6660 C   0  0  0  0  0  0  0  0  0  0  0  0
    1.5980    1.3790   -1.7980 N   0  0  0  0  0  0  0  0  0  0  0  0
   -3.9470   -0.2740    2.1230 O   0  0  0  0  0  0  0  0  0  0  0  0
   -3.6130    0.4520   -0.1570 C   0  0  0  0  0  0  0  0  0  0  0  0
   -2.9180    1.9620   -2.0950 C   0  0  0  0  0  0  0  0  0  0  0  0
   -1.0720   -0.6640   -2.8380 C   0  0  0  0  0  0  0  0  0  0  0  0
    6.8160    1.5380    2.0230 C   0  0  0  0  0  0  0  0  0  0  0  0
   -0.5460    0.5790   -3.5850 C   0  0  0  0  0  0  0  0  0  0  0  0
   -2.9610    0.1360    1.2030 C   0  0  3  0  0  0  0  0  0  0  0  0
    4.9310    1.0600    0.0590 C   0  0  0  0  0  0  0  0  0  0  0  0
    7.7410    1.7720    2.9840 F   0  0  0  0  0  0  0  0  0  0  0  0
   -2.4700   -0.5190   -2.2200 C   0  0  0  0  0  0  0  0  0  0  0  0
    5.9550    0.4600    2.1680 C   0  0  0  0  0  0  0  0  0  0  0  0
    6.7600    2.3860    0.9260 C   0  0  0  0  0  0  0  0  0  0  0  0
    5.8080    2.1420   -0.0610 C   0  0  0  0  0  0  0  0  0  0  0  0
    5.0050    0.2230    1.1770 C   0  0  0  0  0  0  0  0  0  0  0  0
    2.5770    1.5350   -0.7210 C   0  0  0  0  0  0  0  0  0  0  0  0
   -3.2880   -0.8600    3.2330 C   0  0  0  0  0  0  0  0  0  0  0  0
    3.8900    0.8090   -1.0120 C   0  0  0  0  0  0  0  0  0  0  0  0
   -1.9960   -1.0470    1.2040 C   0  0  0  0  0  0  0  0  0  0  0  0
   -1.9930   -1.4560    2.6760 C   0  0  0  0  0  0  0  0  0  0  0  0
  1  2  1  0  0  0  0
  1  4  2  0  0  0  0
  1  6  1  0  0  0  0
  2  5  1  0  0  0  0
  2 12  1  0  0  0  0
  3  8  1  0  0  0  0
  3  9  1  0  0  0  0
  3 16  1  0  0  0  0
  5  9  1  0  0  0  0
  6 21  1  0  0  0  0
  7 13  1  0  0  0  0
  7 22  1  0  0  0  0
  8 13  1  0  0  0  0
 10 12  1  0  0  0  0
 10 16  1  0  0  0  0
 11 15  1  0  0  0  0
 11 17  1  0  0  0  0
 11 18  2  0  0  0  0
 13 24  1  0  0  0  0
 14 19  2  0  0  0  0
 14 20  1  0  0  0  0
 14 23  1  0  0  0  0
 17 20  2  0  0  0  0
 18 19  1  0  0  0  0
 21 23  1  0  0  0  0
 22 25  1  0  0  0  0
 24 25  1  0  0  0  0
M  CHG  1   3   1
M  END
>  <NScode>
NS-017847782-0000

>  <a_acc>
3

>  <a_don>
1

>  <chiral>
1

>  <opr_nrot>
9

>  <Weight>
349.44998

>  <druglike>
1

>  <lip_druglike>
1

>  <lip_violation>
0

>  <logS>
-2.56621

$$$$
