NS-021553630-0000
  MOE2022           3D

 31 34  0  0  1  0  0  0  0  0999 V2000
    5.7590    1.0810   -0.1480 N   0  0  0  0  0  0  0  0  0  0  0  0
    6.3640    0.3420   -1.1690 C   0  0  0  0  0  0  0  0  0  0  0  0
    1.9580    4.3780    0.6700 C   0  0  0  0  0  0  0  0  0  0  0  0
    2.1370    1.8310    0.5190 N   0  0  0  0  0  0  0  0  0  0  0  0
    7.6640    0.6450   -1.5550 N   0  0  0  0  0  0  0  0  0  0  0  0
    3.3030    1.8330   -0.1620 C   0  0  0  0  0  0  0  0  0  0  0  0
    6.4460    2.1140    0.4800 C   0  0  0  0  0  0  0  0  0  0  0  0
    2.4080    4.9000    1.7620 N   0  0  0  0  0  0  0  0  0  0  0  0
    4.3400    0.7730    0.1950 C   0  0  0  0  0  0  0  0  0  0  0  0
    7.7140    2.3650    0.0570 C   0  0  0  0  0  0  0  0  0  0  0  0
    2.1790    5.1580   -0.4090 O   0  0  0  0  0  0  0  0  0  0  0  0
    1.2530    3.0270    0.5250 C   0  0  3  0  0  0  0  0  0  0  0  0
    2.8400    6.2090    0.0370 C   0  0  0  0  0  0  0  0  0  0  0  0
    8.2960    1.5970   -0.9850 C   0  0  0  0  0  0  0  0  0  0  0  0
    2.9760    6.0700    1.3640 C   0  0  0  0  0  0  0  0  0  0  0  0
    5.7380   -0.5810   -1.6890 O   0  0  0  0  0  0  0  0  0  0  0  0
    3.5270    2.6760   -1.0250 O   0  0  0  0  0  0  0  0  0  0  0  0
    3.3210    7.2870   -0.9030 C   0  0  0  0  0  0  0  0  0  0  0  0
    4.7800    7.6380   -0.6770 C   0  0  0  0  0  0  0  0  0  0  0  0
    5.7610    6.6610   -0.8430 C   0  0  0  0  0  0  0  0  0  0  0  0
    1.3840    0.5840    0.7050 C   0  0  0  0  0  0  0  0  0  0  0  0
    7.1050    6.9770   -0.6350 C   0  0  0  0  0  0  0  0  0  0  0  0
    5.7640    2.9220    1.5690 C   0  0  0  0  0  0  0  0  0  0  0  0
    8.3250    5.7620   -0.8430 Cl  0  0  0  0  0  0  0  0  0  0  0  0
    0.2390    2.9330   -0.6320 C   0  0  0  0  0  0  0  0  0  0  0  0
    9.6990    1.9000   -1.4460 C   0  0  0  0  0  0  0  0  0  0  0  0
    6.4930    9.2420   -0.0910 C   0  0  0  0  0  0  0  0  0  0  0  0
    5.1520    8.9290   -0.2980 C   0  0  0  0  0  0  0  0  0  0  0  0
    7.4720    8.2690   -0.2590 C   0  0  0  0  0  0  0  0  0  0  0  0
    0.3520    0.4130   -0.4240 C   0  0  0  0  0  0  0  0  0  0  0  0
   -0.5830    1.6290   -0.5680 C   0  0  0  0  0  0  0  0  0  0  0  0
  1  2  1  0  0  0  0
  1  7  1  0  0  0  0
  1  9  1  0  0  0  0
  2  5  1  0  0  0  0
  2 16  2  0  0  0  0
  3  8  2  0  0  0  0
  3 11  1  0  0  0  0
  3 12  1  0  0  0  0
  4  6  1  0  0  0  0
  4 12  1  0  0  0  0
  4 21  1  0  0  0  0
  5 14  2  0  0  0  0
  6  9  1  0  0  0  0
  6 17  2  0  0  0  0
  7 10  2  0  0  0  0
  7 23  1  0  0  0  0
  8 15  1  0  0  0  0
 10 14  1  0  0  0  0
 11 13  1  0  0  0  0
 12 25  1  0  0  0  0
 13 15  2  0  0  0  0
 13 18  1  0  0  0  0
 14 26  1  0  0  0  0
 18 19  1  0  0  0  0
 19 20  2  0  0  0  0
 19 28  1  0  0  0  0
 20 22  1  0  0  0  0
 21 30  1  0  0  0  0
 22 24  1  0  0  0  0
 22 29  2  0  0  0  0
 25 31  1  0  0  0  0
 27 28  2  0  0  0  0
 27 29  1  0  0  0  0
 30 31  1  0  0  0  0
M  END
>  <NScode>
NS-021553630-0000

>  <a_acc>
4

>  <a_don>
0

>  <chiral>
1

>  <opr_nrot>
7

>  <Weight>
440.931

>  <druglike>
1

>  <lip_druglike>
1

>  <lip_violation>
0

>  <logS>
-4.7992501

$$$$
