NS-018392560-0000
  MOE2022           3D

 25 28  0  0  1  0  0  0  0  0999 V2000
   -1.9390    1.1170    1.5810 C   0  0  3  0  0  0  0  0  0  0  0  0
   -2.4160    2.4710    1.0890 C   0  0  3  0  0  0  0  0  0  0  0  0
   -0.5370    0.5930    1.3000 C   0  0  0  0  0  0  0  0  0  0  0  0
   -2.9820    1.2110    0.5010 C   0  0  0  0  0  0  0  0  0  0  0  0
    0.4790   -4.8510    0.2000 C   0  0  0  0  0  0  0  0  0  0  0  0
    1.6990   -5.2960   -0.4620 C   0  0  0  0  0  0  0  0  0  0  0  0
   -0.3550   -0.6560    0.7470 N   0  0  0  0  0  0  0  0  0  0  0  0
    0.2220   -3.5040    0.3830 N   0  0  0  0  0  0  0  0  0  0  0  0
   -1.5710    3.3760    0.2110 C   0  0  0  0  0  0  0  0  0  0  0  0
    2.3090   -6.4950   -0.2510 C   0  0  0  0  0  0  0  0  0  0  0  0
    2.4670   -4.6440   -1.4470 C   0  0  0  0  0  0  0  0  0  0  0  0
    0.4470    1.2340    1.6110 O   0  0  0  0  0  0  0  0  0  0  0  0
    3.4050   -6.5990   -1.0310 O   0  0  0  0  0  0  0  0  0  0  0  0
   -1.4480   -1.6120    0.4560 C   0  0  0  0  0  0  0  0  0  0  0  0
    0.9880   -1.1100    0.3160 C   0  0  0  0  0  0  0  0  0  0  0  0
    1.2990   -2.5560    0.7450 C   0  0  0  0  0  0  0  0  0  0  0  0
   -1.1100   -3.0640    0.8520 C   0  0  0  0  0  0  0  0  0  0  0  0
   -0.3630   -5.6390    0.6190 O   0  0  0  0  0  0  0  0  0  0  0  0
    3.4930   -5.4630   -1.7620 C   0  0  0  0  0  0  0  0  0  0  0  0
   -0.4110    3.9640    0.7220 C   0  0  0  0  0  0  0  0  0  0  0  0
   -1.9670    3.6540   -1.1010 C   0  0  0  0  0  0  0  0  0  0  0  0
   -0.0480    5.0560   -1.3740 C   0  0  0  0  0  0  0  0  0  0  0  0
    0.3630    4.8060   -0.0730 C   0  0  0  0  0  0  0  0  0  0  0  0
   -1.2020    4.4970   -1.9050 C   0  0  0  0  0  0  0  0  0  0  0  0
    0.6990    5.8750   -2.1530 F   0  0  0  0  0  0  0  0  0  0  0  0
  1  2  1  0  0  0  0
  1  3  1  0  0  0  0
  1  4  1  0  0  0  0
  2  4  1  0  0  0  0
  2  9  1  0  0  0  0
  3  7  1  0  0  0  0
  3 12  2  0  0  0  0
  5  6  1  0  0  0  0
  5  8  1  0  0  0  0
  5 18  2  0  0  0  0
  6 10  2  0  0  0  0
  6 11  1  0  0  0  0
  7 14  1  0  0  0  0
  7 15  1  0  0  0  0
  8 16  1  0  0  0  0
  8 17  1  0  0  0  0
  9 20  2  0  0  0  0
  9 21  1  0  0  0  0
 10 13  1  0  0  0  0
 11 19  2  0  0  0  0
 13 19  1  0  0  0  0
 14 17  1  0  0  0  0
 15 16  1  0  0  0  0
 20 23  1  0  0  0  0
 21 24  2  0  0  0  0
 22 23  2  0  0  0  0
 22 24  1  0  0  0  0
 22 25  1  0  0  0  0
M  END
>  <NScode>
NS-018392560-0000

>  <a_acc>
2

>  <a_don>
0

>  <chiral>
2

>  <opr_nrot>
5

>  <Weight>
342.37

>  <druglike>
1

>  <lip_druglike>
1

>  <lip_violation>
0

>  <logS>
-3.3450899

$$$$
