NS-015822394-0000
  MOE2022           3D

 30 33  0  0  1  0  0  0  0  0999 V2000
   -2.6230   -0.3970    0.3060 N   0  0  0  0  0  0  0  0  0  0  0  0
   -0.3090   -0.0020    0.0020 C   0  0  0  0  0  0  0  0  0  0  0  0
   -2.8230    0.9310    0.3320 C   0  0  0  0  0  0  0  0  0  0  0  0
   -1.4040   -0.8460    0.1310 C   0  0  0  0  0  0  0  0  0  0  0  0
   -1.7980    1.7930    0.1870 N   0  0  0  0  0  0  0  0  0  0  0  0
   -0.5600    1.3560    0.0270 C   0  0  0  0  0  0  0  0  0  0  0  0
    2.1820    0.4610    0.0760 N   0  3  3  0  0  0  0  0  0  0  0  0
   -4.1820    1.4520    0.5160 C   0  0  0  0  0  0  0  0  0  0  0  0
    1.0810   -0.5580   -0.1550 C   0  0  0  0  0  0  0  0  0  0  0  0
    0.5340    2.3940   -0.0890 C   0  0  0  0  0  0  0  0  0  0  0  0
   -1.3220   -2.2070    0.1020 N   0  0  0  0  0  0  0  0  0  0  0  0
   -6.4630    1.0300    1.1290 N   0  0  0  0  0  0  0  0  0  0  0  0
    1.8530    1.7910   -0.5750 C   0  0  0  0  0  0  0  0  0  0  0  0
    3.5710   -0.0380   -0.2480 C   0  0  0  0  0  0  0  0  0  0  0  0
    4.6550    0.9220    0.1790 C   0  0  0  0  0  0  0  0  0  0  0  0
   -5.2120    0.6080    0.9580 C   0  0  0  0  0  0  0  0  0  0  0  0
    6.5990    2.7220    0.9680 C   0  0  0  0  0  0  0  0  0  0  0  0
   -1.8930   -5.1750   -0.1480 N   0  3  0  0  0  0  0  0  0  0  0  0
    7.5450    3.6050    1.3540 F   0  0  0  0  0  0  0  0  0  0  0  0
    5.9680    1.9500    1.9330 C   0  0  0  0  0  0  0  0  0  0  0  0
    6.2910    2.6160   -0.3800 C   0  0  0  0  0  0  0  0  0  0  0  0
    5.3110    1.7090   -0.7760 C   0  0  0  0  0  0  0  0  0  0  0  0
    4.9890    1.0440    1.5330 C   0  0  0  0  0  0  0  0  0  0  0  0
   -1.7780   -2.7950   -1.1860 C   0  0  0  0  0  0  0  0  0  0  0  0
   -4.5030    2.7900    0.2590 C   0  0  0  0  0  0  0  0  0  0  0  0
   -6.7720    2.3020    0.8820 C   0  0  0  0  0  0  0  0  0  0  0  0
   -2.5760   -4.1050   -1.0050 C   0  0  0  0  0  0  0  0  0  0  0  0
   -0.9830   -6.0980   -0.9570 C   0  0  0  0  0  0  0  0  0  0  0  0
   -2.8840   -5.9570    0.7110 C   0  0  0  0  0  0  0  0  0  0  0  0
   -5.8120    3.2100    0.4460 C   0  0  0  0  0  0  0  0  0  0  0  0
  1  3  1  0  0  0  0
  1  4  2  0  0  0  0
  2  4  1  0  0  0  0
  2  6  2  0  0  0  0
  2  9  1  0  0  0  0
  3  5  2  0  0  0  0
  3  8  1  0  0  0  0
  4 11  1  0  0  0  0
  5  6  1  0  0  0  0
  6 10  1  0  0  0  0
  7  9  1  0  0  0  0
  7 13  1  0  0  0  0
  7 14  1  0  0  0  0
  8 16  2  0  0  0  0
  8 25  1  0  0  0  0
 10 13  1  0  0  0  0
 11 24  1  0  0  0  0
 12 16  1  0  0  0  0
 12 26  2  0  0  0  0
 14 15  1  0  0  0  0
 15 22  2  0  0  0  0
 15 23  1  0  0  0  0
 17 19  1  0  0  0  0
 17 20  1  0  0  0  0
 17 21  2  0  0  0  0
 18 27  1  0  0  0  0
 18 28  1  0  0  0  0
 18 29  1  0  0  0  0
 20 23  2  0  0  0  0
 21 22  1  0  0  0  0
 24 27  1  0  0  0  0
 25 30  2  0  0  0  0
 26 30  1  0  0  0  0
M  CHG  1   7   1
M  CHG  1  18   1
M  END
>  <NScode>
NS-015822394-0000

>  <a_acc>
5

>  <a_don>
1

>  <chiral>
0

>  <opr_nrot>
8

>  <Weight>
406.509

>  <druglike>
1

>  <lip_druglike>
1

>  <lip_violation>
0

>  <logS>
-3.9919901

$$$$
