NS-013108016-0000
  MOE2022           3D

 25 26  0  0  0  0  0  0  0  0999 V2000
   -4.4360   -0.3750   -0.6720 C   0  0  0  0  0  0  0  0  0  0  0  0
   -2.6290    0.3750    0.3700 C   0  0  0  0  0  0  0  0  0  0  0  0
   -4.0040    0.5560    0.2110 C   0  0  0  0  0  0  0  0  0  0  0  0
   -2.2250   -0.6380   -0.3920 N   0  0  0  0  0  0  0  0  0  0  0  0
   -3.3340   -1.0840   -1.0190 N   0  0  0  0  0  0  0  0  0  0  0  0
    3.6410    0.0010    0.8880 C   0  0  0  0  0  0  0  0  0  0  0  0
    4.2010   -0.1050   -0.3370 C   0  0  0  0  0  0  0  0  0  0  0  0
   -5.8070   -0.6750   -1.2350 C   0  0  0  0  0  0  0  0  0  0  0  0
    5.6220   -0.9430    1.2210 N   0  0  0  0  0  0  0  0  0  0  0  0
    5.4150   -0.6890   -0.1000 N   0  0  0  0  0  0  0  0  0  0  0  0
   -1.7570    1.1680    1.2390 C   0  0  0  0  0  0  0  0  0  0  0  0
    4.5380   -0.5210    1.8180 C   0  0  0  0  0  0  0  0  0  0  0  0
    1.8930    1.1820    2.2510 C   0  0  0  0  0  0  0  0  0  0  0  0
    2.3330    0.5360    1.1080 N   0  0  0  0  0  0  0  0  0  0  0  0
   -0.4410    0.8080    1.2880 N   0  0  0  0  0  0  0  0  0  0  0  0
    0.5550    1.5130    2.1670 N   0  0  0  0  0  0  0  0  0  0  0  0
    2.8280    1.5830    3.5870 S   0  0  0  0  0  0  0  0  0  0  0  0
   -2.1170    2.1290    1.9330 O   0  0  0  0  0  0  0  0  0  0  0  0
   -6.1970   -1.9240   -0.9530 F   0  0  0  0  0  0  0  0  0  0  0  0
   -5.8320   -0.5550   -2.5680 F   0  0  0  0  0  0  0  0  0  0  0  0
   -6.7430    0.1470   -0.7500 F   0  0  0  0  0  0  0  0  0  0  0  0
   -3.2490   -2.2040   -1.9430 C   0  0  0  0  0  0  0  0  0  0  0  0
    3.6970    0.2910   -1.7120 C   0  0  0  0  0  0  0  0  0  0  0  0
    6.4410   -1.0110   -1.0850 C   0  0  0  0  0  0  0  0  0  0  0  0
    7.4540    0.1190   -1.3330 C   0  0  0  0  0  0  0  0  0  0  0  0
  1  3  2  0  0  0  0
  1  5  1  0  0  0  0
  1  8  1  0  0  0  0
  2  3  1  0  0  0  0
  2  4  2  0  0  0  0
  2 11  1  0  0  0  0
  4  5  1  0  0  0  0
  5 22  1  0  0  0  0
  6  7  2  0  0  0  0
  6 12  1  0  0  0  0
  6 14  1  0  0  0  0
  7 10  1  0  0  0  0
  7 23  1  0  0  0  0
  8 19  1  0  0  0  0
  8 20  1  0  0  0  0
  8 21  1  0  0  0  0
  9 10  1  0  0  0  0
  9 12  2  0  0  0  0
 10 24  1  0  0  0  0
 11 15  1  0  0  0  0
 11 18  2  0  0  0  0
 13 14  1  0  0  0  0
 13 16  1  0  0  0  0
 13 17  2  0  0  0  0
 15 16  1  0  0  0  0
 24 25  1  0  0  0  0
M  END
>  <NScode>
NS-013108016-0000

>  <a_acc>
4

>  <a_don>
3

>  <chiral>
0

>  <opr_nrot>
4

>  <Weight>
375.379

>  <druglike>
1

>  <lip_druglike>
1

>  <lip_violation>
0

>  <logS>
-3.17874

$$$$
