NS-005936570-0000
  MOE2022           3D

 18 20  0  0  0  0  0  0  0  0999 V2000
   -0.1600    0.1620    0.0460 C   0  0  0  0  0  0  0  0  0  0  0  0
   -0.5780   -1.1110    0.0910 N   0  0  0  0  0  0  0  0  0  0  0  0
    1.2110    0.1500    0.0780 C   0  0  0  0  0  0  0  0  0  0  0  0
   -1.2850    0.9930   -0.0150 N   0  0  0  0  0  0  0  0  0  0  0  0
   -1.9700   -1.1670    0.0610 C   0  0  0  0  0  0  0  0  0  0  0  0
    0.4790   -1.9950    0.1530 N   0  0  0  0  0  0  0  0  0  0  0  0
    1.5370   -1.2240    0.1440 C   0  0  0  0  0  0  0  0  0  0  0  0
    2.0960    1.2880    0.0470 C   0  0  0  0  0  0  0  0  0  0  0  0
   -2.4010    0.1470   -0.0040 C   0  0  0  0  0  0  0  0  0  0  0  0
   -1.2700    2.4530   -0.0660 C   0  0  0  0  0  0  0  0  0  0  0  0
   -2.8540   -2.2430    0.0870 C   0  0  0  0  0  0  0  0  0  0  0  0
    2.9160   -1.8360    0.2050 C   0  0  0  0  0  0  0  0  0  0  0  0
    3.4410    1.0650    0.0490 O   0  0  0  0  0  0  0  0  0  0  0  0
    1.7460    2.4660    0.0170 O   0  0  0  0  0  0  0  0  0  0  0  0
   -3.7640    0.4430   -0.0460 C   0  0  0  0  0  0  0  0  0  0  0  0
   -4.2170   -1.9560    0.0440 C   0  0  0  0  0  0  0  0  0  0  0  0
    4.4110    2.1490    0.0130 C   0  0  0  0  0  0  0  0  0  0  0  0
   -4.6670   -0.6200   -0.0220 C   0  0  0  0  0  0  0  0  0  0  0  0
  1  2  1  0  0  0  0
  1  3  2  0  0  0  0
  1  4  1  0  0  0  0
  2  5  1  0  0  0  0
  2  6  1  0  0  0  0
  3  7  1  0  0  0  0
  3  8  1  0  0  0  0
  4  9  1  0  0  0  0
  4 10  1  0  0  0  0
  5  9  2  0  0  0  0
  5 11  1  0  0  0  0
  6  7  2  0  0  0  0
  7 12  1  0  0  0  0
  8 13  1  0  0  0  0
  8 14  2  0  0  0  0
  9 15  1  0  0  0  0
 11 16  2  0  0  0  0
 13 17  1  0  0  0  0
 15 18  2  0  0  0  0
 16 18  1  0  0  0  0
M  END
>  <NScode>
NS-005936570-0000

>  <a_acc>
2

>  <a_don>
0

>  <chiral>
0

>  <opr_nrot>
1

>  <Weight>
243.26599

>  <druglike>
1

>  <lip_druglike>
1

>  <lip_violation>
0

>  <logS>
-2.6509399

$$$$
