NS-006250813-0000
  MOE2022           3D

 19 21  0  0  0  0  0  0  0  0999 V2000
    1.9030    1.5790   -0.0550 C   0  0  0  0  0  0  0  0  0  0  0  0
    2.2700    2.8880    0.1550 C   0  0  0  0  0  0  0  0  0  0  0  0
    1.1870    1.2270    1.0590 N   0  0  0  0  0  0  0  0  0  0  0  0
    2.1930    0.8050   -1.1430 N   0  0  0  0  0  0  0  0  0  0  0  0
    3.0390    3.4620   -0.8950 C   0  0  0  0  0  0  0  0  0  0  0  0
    1.7680    3.3550    1.3820 N   0  0  0  0  0  0  0  0  0  0  0  0
    1.1260    2.3300    1.8720 C   0  0  0  0  0  0  0  0  0  0  0  0
    0.5030   -0.0380    1.2630 C   0  0  0  0  0  0  0  0  0  0  0  0
    2.9210    1.4770   -2.0400 C   0  0  0  0  0  0  0  0  0  0  0  0
    3.3510    2.7360   -1.9780 N   0  0  0  0  0  0  0  0  0  0  0  0
    3.5010    4.7050   -0.9230 N   0  0  0  0  0  0  0  0  0  0  0  0
   -0.7330   -0.2070    0.3770 C   0  0  0  0  0  0  0  0  0  0  0  0
   -1.4330   -1.4260    0.6970 O   0  0  0  0  0  0  0  0  0  0  0  0
   -2.5750   -1.8650    0.0650 C   0  0  0  0  0  0  0  0  0  0  0  0
   -3.1120   -3.0740    0.4960 C   0  0  0  0  0  0  0  0  0  0  0  0
   -3.1800   -1.1410   -0.9660 C   0  0  0  0  0  0  0  0  0  0  0  0
   -4.2660   -3.5660   -0.1060 C   0  0  0  0  0  0  0  0  0  0  0  0
   -4.3350   -1.6400   -1.5620 C   0  0  0  0  0  0  0  0  0  0  0  0
   -4.8770   -2.8500   -1.1330 C   0  0  0  0  0  0  0  0  0  0  0  0
  1  2  2  0  0  0  0
  1  3  1  0  0  0  0
  1  4  1  0  0  0  0
  2  5  1  0  0  0  0
  2  6  1  0  0  0  0
  3  7  1  0  0  0  0
  3  8  1  0  0  0  0
  4  9  2  0  0  0  0
  5 10  2  0  0  0  0
  5 11  1  0  0  0  0
  6  7  2  0  0  0  0
  8 12  1  0  0  0  0
  9 10  1  0  0  0  0
 12 13  1  0  0  0  0
 13 14  1  0  0  0  0
 14 15  2  0  0  0  0
 14 16  1  0  0  0  0
 15 17  1  0  0  0  0
 16 18  2  0  0  0  0
 17 19  2  0  0  0  0
 18 19  1  0  0  0  0
M  END
>  <NScode>
NS-006250813-0000

>  <a_acc>
4

>  <a_don>
1

>  <chiral>
0

>  <opr_nrot>
4

>  <Weight>
255.28099

>  <druglike>
1

>  <lip_druglike>
1

>  <lip_violation>
0

>  <logS>
-3.24281

$$$$
