NS-042405665-0000
  MOE2022           3D

 30 34  0  0  0  0  0  0  0  0999 V2000
    2.2780    1.3840    0.9090 O   0  0  0  0  0  0  0  0  0  0  0  0
    1.2340    0.7810    0.6940 C   0  0  0  0  0  0  0  0  0  0  0  0
    1.3200   -0.5530    0.3450 N   0  0  0  0  0  0  0  0  0  0  0  0
    2.6400   -1.2350    0.3110 C   0  0  0  0  0  0  0  0  0  0  0  0
    2.5650   -2.7720    0.4880 C   0  0  0  0  0  0  0  0  0  0  0  0
    1.4350   -3.4490   -0.2290 N   0  0  0  0  0  0  0  0  0  0  0  0
    0.6220   -2.5330   -1.0630 C   0  0  0  0  0  0  0  0  0  0  0  0
    0.1860   -1.2730   -0.2890 C   0  0  0  0  0  0  0  0  0  0  0  0
    1.2210   -4.7770   -0.0740 C   0  0  0  0  0  0  0  0  0  0  0  0
    2.3190   -5.5080    0.2120 N   0  0  0  0  0  0  0  0  0  0  0  0
    2.2540   -6.8140    0.3340 C   0  0  0  0  0  0  0  0  0  0  0  0
    1.0900   -7.4780    0.1920 N   0  3  0  0  0  0  0  0  0  0  0  0
   -0.0860   -6.8060   -0.0560 C   0  0  0  0  0  0  0  0  0  0  0  0
   -1.3630   -7.3760   -0.1580 C   0  0  0  0  0  0  0  0  0  0  0  0
   -2.3180   -6.4130   -0.3460 C   0  0  0  0  0  0  0  0  0  0  0  0
   -1.6490   -4.8150   -0.3970 S   0  0  0  0  0  0  0  0  0  0  0  0
   -0.0290   -5.4300   -0.1860 C   0  0  0  0  0  0  0  0  0  0  0  0
   -0.0690    1.4410    0.7680 C   0  0  0  0  0  0  0  0  0  0  0  0
   -1.0760    0.9640    1.6150 C   0  0  0  0  0  0  0  0  0  0  0  0
   -2.3120    1.5970    1.6630 C   0  0  0  0  0  0  0  0  0  0  0  0
   -2.5500    2.7190    0.8730 C   0  0  0  0  0  0  0  0  0  0  0  0
   -1.5500    3.2270    0.0370 C   0  0  0  0  0  0  0  0  0  0  0  0
   -0.3180    2.5750   -0.0120 C   0  0  0  0  0  0  0  0  0  0  0  0
   -1.8490    4.6810   -0.9910 S   0  0  0  0  0  0  0  0  0  0  0  0
   -1.0600    4.5640   -2.1670 O   0  0  0  0  0  0  0  0  0  0  0  0
   -3.2520    4.8240   -1.1600 O   0  0  0  0  0  0  0  0  0  0  0  0
   -1.3050    5.9340   -0.0810 N   0  0  0  0  0  0  0  0  0  0  0  0
    0.0930    6.0330    0.2650 C   0  0  0  0  0  0  0  0  0  0  0  0
    0.6800    7.4060    0.3850 C   0  0  0  0  0  0  0  0  0  0  0  0
    1.0580    6.5280   -0.7690 C   0  0  0  0  0  0  0  0  0  0  0  0
  1  2  2  0  0  0  0
  2  3  1  0  0  0  0
  2 18  1  0  0  0  0
  3  4  1  0  0  0  0
  3  8  1  0  0  0  0
  4  5  1  0  0  0  0
  5  6  1  0  0  0  0
  6  7  1  0  0  0  0
  6  9  1  0  0  0  0
  7  8  1  0  0  0  0
  9 10  1  0  0  0  0
  9 17  2  0  0  0  0
 10 11  2  0  0  0  0
 11 12  1  0  0  0  0
 12 13  2  0  0  0  0
 13 14  1  0  0  0  0
 13 17  1  0  0  0  0
 14 15  2  0  0  0  0
 15 16  1  0  0  0  0
 16 17  1  0  0  0  0
 18 19  1  0  0  0  0
 18 23  2  0  0  0  0
 19 20  2  0  0  0  0
 20 21  1  0  0  0  0
 21 22  2  0  0  0  0
 22 23  1  0  0  0  0
 22 24  1  0  0  0  0
 24 25  2  0  0  0  0
 24 26  2  0  0  0  0
 24 27  1  0  0  0  0
 27 28  1  0  0  0  0
 28 29  1  0  0  0  0
 28 30  1  0  0  0  0
 29 30  1  0  0  0  0
M  CHG  1  12   1
M  END
>  <NScode>
NS-042405665-0000

>  <a_acc>
5

>  <a_don>
1

>  <chiral>
0

>  <opr_nrot>
6

>  <Weight>
443.552

>  <druglike>
1

>  <lip_druglike>
1

>  <lip_violation>
0

>  <logS>
-4.3693199

$$$$
