NS-042188707-0000
  MOE2022           3D

 17 18  0  0  0  0  0  0  0  0999 V2000
   -0.3650    0.9500   -1.5850 C   0  0  0  0  0  0  0  0  0  0  0  0
    0.3480    0.9220   -0.2170 C   0  0  0  0  0  0  0  0  0  0  0  0
    1.7500    1.5570   -0.3860 C   0  0  0  0  0  0  0  0  0  0  0  0
   -0.5100    1.7170    0.8350 C   0  0  0  0  0  0  0  0  0  0  0  0
   -0.2630    2.9310    1.0170 O   0  5  0  0  0  0  0  0  0  0  0  0
   -1.4470    1.1250    1.4300 O   0  0  0  0  0  0  0  0  0  0  0  0
    0.5600   -0.5570    0.1450 C   0  0  0  0  0  0  0  0  0  0  0  0
    1.4080   -1.5090   -0.3040 C   0  0  0  0  0  0  0  0  0  0  0  0
    1.1220   -2.6940    0.3840 C   0  0  0  0  0  0  0  0  0  0  0  0
    0.1280   -2.4890    1.2270 N   0  0  0  0  0  0  0  0  0  0  0  0
   -0.2040   -1.1790    1.0680 N   0  0  0  0  0  0  0  0  0  0  0  0
    1.7960   -3.9870    0.2210 C   0  0  0  0  0  0  0  0  0  0  0  0
    2.9290   -4.1300   -0.5960 C   0  0  0  0  0  0  0  0  0  0  0  0
    3.5560   -5.3630   -0.7460 C   0  0  0  0  0  0  0  0  0  0  0  0
    3.0650   -6.4810   -0.0810 C   0  0  0  0  0  0  0  0  0  0  0  0
    1.9460   -6.3610    0.7360 C   0  0  0  0  0  0  0  0  0  0  0  0
    1.3200   -5.1280    0.8850 C   0  0  0  0  0  0  0  0  0  0  0  0
  1  2  1  0  0  0  0
  2  3  1  0  0  0  0
  2  4  1  0  0  0  0
  2  7  1  0  0  0  0
  4  5  1  0  0  0  0
  4  6  2  0  0  0  0
  7  8  2  0  0  0  0
  7 11  1  0  0  0  0
  8  9  1  0  0  0  0
  9 10  2  0  0  0  0
  9 12  1  0  0  0  0
 10 11  1  0  0  0  0
 12 13  1  0  0  0  0
 12 17  2  0  0  0  0
 13 14  2  0  0  0  0
 14 15  1  0  0  0  0
 15 16  2  0  0  0  0
 16 17  1  0  0  0  0
M  CHG  1   5  -1
M  END
>  <NScode>
NS-042188707-0000

>  <a_acc>
3

>  <a_don>
4

>  <chiral>
0

>  <opr_nrot>
3

>  <Weight>
230.267

>  <druglike>
1

>  <lip_druglike>
1

>  <lip_violation>
0

>  <logS>
-2.8034301

$$$$
