NS-019802017-0000
  MOE2022           3D

 23 25  0  0  1  0  0  0  0  0999 V2000
   -5.1900    0.9150    0.1740 C   0  0  0  0  0  0  0  0  0  0  0  0
   -4.1050    1.0020    1.0230 C   0  0  0  0  0  0  0  0  0  0  0  0
    2.0070   -0.3370    0.5210 C   0  0  0  0  0  0  0  0  0  0  0  0
   -2.9910    0.0820    0.6000 C   0  0  3  0  0  0  0  0  0  0  0  0
    3.3570   -0.8640    0.7050 C   0  0  0  0  0  0  0  0  0  0  0  0
   -1.8910    0.8720    0.0770 N   0  0  0  0  0  0  0  0  0  0  0  0
   -0.3510   -0.8050    0.5010 N   0  0  0  0  0  0  0  0  0  0  0  0
   -0.5890    0.4790    0.2240 C   0  0  0  0  0  0  0  0  0  0  0  0
   -4.9390   -0.0850   -0.9230 C   0  0  0  0  0  0  0  0  0  0  0  0
    0.9110   -1.2050    0.6470 C   0  0  0  0  0  0  0  0  0  0  0  0
   -3.6330   -0.7830   -0.5010 C   0  0  0  0  0  0  0  0  0  0  0  0
   -6.3090    1.7100    0.4060 C   0  0  0  0  0  0  0  0  0  0  0  0
    3.5840   -2.0160    1.0550 O   0  0  0  0  0  0  0  0  0  0  0  0
    1.7490    1.0120    0.2270 C   0  0  0  0  0  0  0  0  0  0  0  0
    4.4450   -0.0640    0.4840 N   0  0  0  0  0  0  0  0  0  0  0  0
    6.7790    0.6050    0.5910 C   0  0  0  0  0  0  0  0  0  0  0  0
    7.5960    0.8840   -0.4350 C   0  0  0  0  0  0  0  0  0  0  0  0
    0.4360    1.4180    0.0750 C   0  0  0  0  0  0  0  0  0  0  0  0
   -7.3790    1.6450   -0.4270 O   0  0  0  0  0  0  0  0  0  0  0  0
   -4.1190    1.8720    2.1130 C   0  0  0  0  0  0  0  0  0  0  0  0
    5.8070   -0.5490    0.5880 C   0  0  0  0  0  0  0  0  0  0  0  0
   -5.2460    2.6640    2.3440 C   0  0  0  0  0  0  0  0  0  0  0  0
   -6.3450    2.5850    1.4890 C   0  0  0  0  0  0  0  0  0  0  0  0
  1  2  2  0  0  0  0
  1  9  1  0  0  0  0
  1 12  1  0  0  0  0
  2  4  1  0  0  0  0
  2 20  1  0  0  0  0
  3  5  1  0  0  0  0
  3 10  2  0  0  0  0
  3 14  1  0  0  0  0
  4  6  1  0  0  0  0
  4 11  1  0  0  0  0
  5 13  2  0  0  0  0
  5 15  1  0  0  0  0
  6  8  1  0  0  0  0
  7  8  2  0  0  0  0
  7 10  1  0  0  0  0
  8 18  1  0  0  0  0
  9 11  1  0  0  0  0
 12 19  1  0  0  0  0
 12 23  2  0  0  0  0
 14 18  2  0  0  0  0
 15 21  1  0  0  0  0
 16 17  2  0  0  0  0
 16 21  1  0  0  0  0
 20 22  2  0  0  0  0
 22 23  1  0  0  0  0
M  END
>  <NScode>
NS-019802017-0000

>  <a_acc>
3

>  <a_don>
3

>  <chiral>
1

>  <opr_nrot>
5

>  <Weight>
309.36899

>  <druglike>
1

>  <lip_druglike>
1

>  <lip_violation>
0

>  <logS>
-2.6684101

$$$$
