NS-015270749-0000
  MOE2022           3D

 25 27  0  0  0  0  0  0  0  0999 V2000
    2.2950    0.1650   -0.0380 C   0  0  0  0  0  0  0  0  0  0  0  0
    1.7290   -0.3540    1.0990 N   0  0  0  0  0  0  0  0  0  0  0  0
    3.3670   -0.6260   -0.3700 N   0  0  0  0  0  0  0  0  0  0  0  0
    2.4380   -1.4910    1.4730 C   0  0  0  0  0  0  0  0  0  0  0  0
    3.4650   -1.6550    0.5650 C   0  0  0  0  0  0  0  0  0  0  0  0
   -0.8870    0.5230   -0.2610 N   0  0  0  0  0  0  0  0  0  0  0  0
   -1.9460    0.4780   -1.1210 C   0  0  0  0  0  0  0  0  0  0  0  0
   -0.7640   -0.0220    0.9950 C   0  0  0  0  0  0  0  0  0  0  0  0
    0.5420    0.2330    1.7280 C   0  0  0  0  0  0  0  0  0  0  0  0
    1.8760    1.1550   -0.6450 O   0  0  0  0  0  0  0  0  0  0  0  0
   -5.1650    0.8910   -0.8020 C   0  0  0  0  0  0  0  0  0  0  0  0
   -3.0090   -0.2870   -0.8050 N   0  0  0  0  0  0  0  0  0  0  0  0
   -6.1720    0.5050    0.0270 O   0  0  0  0  0  0  0  0  0  0  0  0
   -1.8920    1.1310   -2.1490 O   0  0  0  0  0  0  0  0  0  0  0  0
   -1.6570   -0.6820    1.4880 O   0  0  0  0  0  0  0  0  0  0  0  0
   -5.1240    2.2420   -0.8540 C   0  0  0  0  0  0  0  0  0  0  0  0
   -6.7670    1.6320    0.4920 C   0  0  0  0  0  0  0  0  0  0  0  0
   -6.1500    2.7160   -0.0290 C   0  0  0  0  0  0  0  0  0  0  0  0
   -4.2870   -0.1350   -1.4810 C   0  0  0  0  0  0  0  0  0  0  0  0
    4.2530   -0.3710   -1.4950 C   0  0  0  0  0  0  0  0  0  0  0  0
    2.2570   -2.3790    2.5310 C   0  0  0  0  0  0  0  0  0  0  0  0
    4.3710   -2.7070    0.6740 C   0  0  0  0  0  0  0  0  0  0  0  0
    5.5410    0.3410   -1.0740 C   0  0  0  0  0  0  0  0  0  0  0  0
    3.1570   -3.4390    2.6550 C   0  0  0  0  0  0  0  0  0  0  0  0
    4.2080   -3.6010    1.7330 C   0  0  0  0  0  0  0  0  0  0  0  0
  1  2  1  0  0  0  0
  1  3  1  0  0  0  0
  1 10  2  0  0  0  0
  2  4  1  0  0  0  0
  2  9  1  0  0  0  0
  3  5  1  0  0  0  0
  3 20  1  0  0  0  0
  4  5  2  0  0  0  0
  4 21  1  0  0  0  0
  5 22  1  0  0  0  0
  6  7  1  0  0  0  0
  6  8  1  0  0  0  0
  7 12  1  0  0  0  0
  7 14  2  0  0  0  0
  8  9  1  0  0  0  0
  8 15  2  0  0  0  0
 11 13  1  0  0  0  0
 11 16  2  0  0  0  0
 11 19  1  0  0  0  0
 12 19  1  0  0  0  0
 13 17  1  0  0  0  0
 16 18  1  0  0  0  0
 17 18  2  0  0  0  0
 20 23  1  0  0  0  0
 21 24  2  0  0  0  0
 22 25  2  0  0  0  0
 24 25  1  0  0  0  0
M  END
>  <NScode>
NS-015270749-0000

>  <a_acc>
3

>  <a_don>
2

>  <chiral>
0

>  <opr_nrot>
5

>  <Weight>
342.35498

>  <druglike>
1

>  <lip_druglike>
1

>  <lip_violation>
0

>  <logS>
-3.64235

$$$$
