NS-016939745-0000
  MOE2022           3D

 26 28  0  0  1  0  0  0  0  0999 V2000
   -2.2520   -0.5820   -0.1340 C   0  0  0  0  0  0  0  0  0  0  0  0
   -2.1230    0.7680   -0.3700 N   0  0  0  0  0  0  0  0  0  0  0  0
   -3.5090   -0.7910    0.3860 N   0  0  0  0  0  0  0  0  0  0  0  0
   -3.3000    1.4040    0.0110 C   0  0  0  0  0  0  0  0  0  0  0  0
   -4.1650    0.4330    0.4750 C   0  0  0  0  0  0  0  0  0  0  0  0
   -0.9110    1.3770   -0.9020 C   0  0  0  0  0  0  0  0  0  0  0  0
    1.4520    2.1500   -0.4000 C   0  0  0  0  0  0  0  0  0  0  0  0
    2.6040    1.5880   -0.0480 N   0  0  0  0  0  0  0  0  0  0  0  0
    0.1800    1.5410    0.1600 C   0  0  0  0  0  0  0  0  0  0  0  0
   -1.3900   -1.4400   -0.3390 O   0  0  0  0  0  0  0  0  0  0  0  0
    3.8870    2.0200   -0.5590 C   0  0  3  0  0  0  0  0  0  0  0  0
    1.3950    3.1110   -1.1570 O   0  0  0  0  0  0  0  0  0  0  0  0
    4.8510    0.8470   -0.5700 C   0  0  0  0  0  0  0  0  0  0  0  0
   -4.0430   -2.1040    0.7150 C   0  0  0  0  0  0  0  0  0  0  0  0
   -5.4420    0.7550    0.9280 C   0  0  0  0  0  0  0  0  0  0  0  0
   -3.6660    2.7480   -0.0200 C   0  0  0  0  0  0  0  0  0  0  0  0
    4.4230    3.2100    0.2430 C   0  0  0  0  0  0  0  0  0  0  0  0
    5.2690    0.2500    0.6220 C   0  0  0  0  0  0  0  0  0  0  0  0
    5.3170    0.3400   -1.7840 C   0  0  0  0  0  0  0  0  0  0  0  0
   -4.9220   -2.6830   -0.4030 C   0  0  0  0  0  0  0  0  0  0  0  0
   -4.9420    3.0870    0.4320 C   0  0  0  0  0  0  0  0  0  0  0  0
   -5.8250    2.0970    0.9020 C   0  0  0  0  0  0  0  0  0  0  0  0
   -5.5000   -4.0610   -0.0630 C   0  0  0  0  0  0  0  0  0  0  0  0
    6.1900   -0.7440   -1.8060 C   0  0  0  0  0  0  0  0  0  0  0  0
    6.1420   -0.8340    0.5990 C   0  0  0  0  0  0  0  0  0  0  0  0
    6.6020   -1.3310   -0.6150 C   0  0  0  0  0  0  0  0  0  0  0  0
  1  2  1  0  0  0  0
  1  3  1  0  0  0  0
  1 10  2  0  0  0  0
  2  4  1  0  0  0  0
  2  6  1  0  0  0  0
  3  5  1  0  0  0  0
  3 14  1  0  0  0  0
  4  5  2  0  0  0  0
  4 16  1  0  0  0  0
  5 15  1  0  0  0  0
  6  9  1  0  0  0  0
  7  8  1  0  0  0  0
  7  9  1  0  0  0  0
  7 12  2  0  0  0  0
  8 11  1  0  0  0  0
 11 13  1  0  0  0  0
 11 17  1  0  0  0  0
 13 18  1  0  0  0  0
 13 19  2  0  0  0  0
 14 20  1  0  0  0  0
 15 22  2  0  0  0  0
 16 21  2  0  0  0  0
 18 25  2  0  0  0  0
 19 24  1  0  0  0  0
 20 23  1  0  0  0  0
 21 22  1  0  0  0  0
 24 26  2  0  0  0  0
 25 26  1  0  0  0  0
M  END
>  <NScode>
NS-016939745-0000

>  <a_acc>
2

>  <a_don>
1

>  <chiral>
1

>  <opr_nrot>
7

>  <Weight>
351.44998

>  <druglike>
1

>  <lip_druglike>
1

>  <lip_violation>
0

>  <logS>
-4.0731502

$$$$
