NS-017391723-0000
  MOE2022           3D

 27 29  0  0  0  0  0  0  0  0999 V2000
   -2.1660   -1.0390   -0.6770 C   0  0  0  0  0  0  0  0  0  0  0  0
   -2.6760    0.1420   -0.1980 N   0  0  0  0  0  0  0  0  0  0  0  0
   -4.0370    0.0300    0.0030 N   0  0  0  0  0  0  0  0  0  0  0  0
   -3.2140   -1.8870   -0.7930 C   0  0  0  0  0  0  0  0  0  0  0  0
   -0.7680   -1.2290   -0.9520 N   0  0  0  0  0  0  0  0  0  0  0  0
   -1.9420    1.3500    0.0630 C   0  0  0  0  0  0  0  0  0  0  0  0
   -4.3370   -1.1860   -0.3620 C   0  0  0  0  0  0  0  0  0  0  0  0
   -0.1750   -2.3300   -1.5070 C   0  0  0  0  0  0  0  0  0  0  0  0
    2.5600    0.1990   -0.0830 C   0  0  0  0  0  0  0  0  0  0  0  0
   -1.1600    1.9150   -0.9470 C   0  0  0  0  0  0  0  0  0  0  0  0
    1.3090   -2.2420   -1.7470 C   0  0  0  0  0  0  0  0  0  0  0  0
    1.3460    0.3350    0.0100 O   0  0  0  0  0  0  0  0  0  0  0  0
    3.5050    1.3090    0.0800 C   0  0  0  0  0  0  0  0  0  0  0  0
   -0.8140   -3.3270   -1.7720 O   0  0  0  0  0  0  0  0  0  0  0  0
    3.0210   -1.0650   -0.3490 N   0  0  0  0  0  0  0  0  0  0  0  0
   -0.4320    3.0680   -0.6720 C   0  0  0  0  0  0  0  0  0  0  0  0
    2.1370   -2.2330   -0.4520 C   0  0  0  0  0  0  0  0  0  0  0  0
    0.6630    3.8360   -2.0100 Br  0  0  0  0  0  0  0  0  0  0  0  0
   -2.0280    1.9330    1.3280 C   0  0  0  0  0  0  0  0  0  0  0  0
   -1.3020    3.0910    1.5890 C   0  0  0  0  0  0  0  0  0  0  0  0
   -5.7420   -1.7250   -0.3060 C   0  0  0  0  0  0  0  0  0  0  0  0
    3.1290    2.4360    0.8250 C   0  0  0  0  0  0  0  0  0  0  0  0
    4.7830    1.2820   -0.5000 C   0  0  0  0  0  0  0  0  0  0  0  0
   -0.5050    3.6560    0.5930 C   0  0  0  0  0  0  0  0  0  0  0  0
    4.0070    3.5000    0.9960 C   0  0  0  0  0  0  0  0  0  0  0  0
    5.6600    2.3480   -0.3260 C   0  0  0  0  0  0  0  0  0  0  0  0
    5.2740    3.4550    0.4220 C   0  0  0  0  0  0  0  0  0  0  0  0
  1  2  1  0  0  0  0
  1  4  2  0  0  0  0
  1  5  1  0  0  0  0
  2  3  1  0  0  0  0
  2  6  1  0  0  0  0
  3  7  2  0  0  0  0
  4  7  1  0  0  0  0
  5  8  1  0  0  0  0
  6 10  2  0  0  0  0
  6 19  1  0  0  0  0
  7 21  1  0  0  0  0
  8 11  1  0  0  0  0
  8 14  2  0  0  0  0
  9 12  2  0  0  0  0
  9 13  1  0  0  0  0
  9 15  1  0  0  0  0
 10 16  1  0  0  0  0
 11 17  1  0  0  0  0
 13 22  2  0  0  0  0
 13 23  1  0  0  0  0
 15 17  1  0  0  0  0
 16 18  1  0  0  0  0
 16 24  2  0  0  0  0
 19 20  2  0  0  0  0
 20 24  1  0  0  0  0
 22 25  1  0  0  0  0
 23 26  2  0  0  0  0
 25 27  2  0  0  0  0
 26 27  1  0  0  0  0
M  END
>  <NScode>
NS-017391723-0000

>  <a_acc>
3

>  <a_don>
2

>  <chiral>
0

>  <opr_nrot>
6

>  <Weight>
427.302

>  <druglike>
1

>  <lip_druglike>
1

>  <lip_violation>
0

>  <logS>
-5.2783098

$$$$
