NS-018361176-0000
  MOE2022           3D

 23 26  0  0  1  0  0  0  0  0999 V2000
   -1.5200   -1.3640    0.7400 C   0  0  0  0  0  0  0  0  0  0  0  0
    0.3860    2.5240   -0.4570 C   0  0  0  0  0  0  0  0  0  0  0  0
   -1.8590   -2.5700    0.2390 C   0  0  0  0  0  0  0  0  0  0  0  0
    0.1220    1.0240   -0.4310 C   0  0  0  0  0  0  0  0  0  0  0  0
   -3.7350   -1.3740    0.5490 N   0  0  0  0  0  0  0  0  0  0  0  0
   -3.2060   -2.5470    0.1200 N   0  0  0  0  0  0  0  0  0  0  0  0
   -2.7050   -0.6600    0.9160 C   0  0  0  0  0  0  0  0  0  0  0  0
   -0.3540    3.3670   -1.4730 C   0  0  0  0  0  0  0  0  0  0  0  0
   -0.7290    3.4570   -0.0320 C   0  0  0  0  0  0  0  0  0  0  0  0
    0.1990    0.4200    0.7830 N   0  0  0  0  0  0  0  0  0  0  0  0
   -0.0900   -0.9840    1.0480 C   0  0  3  0  0  0  0  0  0  0  0  0
    1.8180    2.9180   -0.1480 C   0  0  0  0  0  0  0  0  0  0  0  0
   -0.1290    0.3810   -1.4290 O   0  0  0  0  0  0  0  0  0  0  0  0
    2.7990    2.7580   -1.1250 C   0  0  0  0  0  0  0  0  0  0  0  0
    2.1750    3.4170    1.1050 C   0  0  0  0  0  0  0  0  0  0  0  0
    4.4740    3.6010    0.3920 C   0  0  0  0  0  0  0  0  0  0  0  0
   -0.9040   -3.6800   -0.1390 C   0  0  0  0  0  0  0  0  0  0  0  0
    3.4980    3.7590    1.3730 C   0  0  0  0  0  0  0  0  0  0  0  0
    4.1220    3.0990   -0.8580 C   0  0  0  0  0  0  0  0  0  0  0  0
    6.2720    4.0650    0.7580 Br  0  0  0  0  0  0  0  0  0  0  0  0
   -4.0390   -3.6100   -0.3970 C   0  0  0  0  0  0  0  0  0  0  0  0
    0.9020   -1.9630    0.3710 C   0  0  0  0  0  0  0  0  0  0  0  0
    0.4750   -3.4430    0.5080 C   0  0  0  0  0  0  0  0  0  0  0  0
  1  3  2  0  0  0  0
  1  7  1  0  0  0  0
  1 11  1  0  0  0  0
  2  4  1  0  0  0  0
  2  8  1  0  0  0  0
  2  9  1  0  0  0  0
  2 12  1  0  0  0  0
  3  6  1  0  0  0  0
  3 17  1  0  0  0  0
  4 10  1  0  0  0  0
  4 13  2  0  0  0  0
  5  6  1  0  0  0  0
  5  7  2  0  0  0  0
  6 21  1  0  0  0  0
  8  9  1  0  0  0  0
 10 11  1  0  0  0  0
 11 22  1  0  0  0  0
 12 14  1  0  0  0  0
 12 15  2  0  0  0  0
 14 19  2  0  0  0  0
 15 18  1  0  0  0  0
 16 18  2  0  0  0  0
 16 19  1  0  0  0  0
 16 20  1  0  0  0  0
 17 23  1  0  0  0  0
 22 23  1  0  0  0  0
M  END
>  <NScode>
NS-018361176-0000

>  <a_acc>
2

>  <a_don>
1

>  <chiral>
1

>  <opr_nrot>
4

>  <Weight>
374.28198

>  <druglike>
1

>  <lip_druglike>
1

>  <lip_violation>
0

>  <logS>
-3.82265

$$$$
