NS-006911332-0000
  MOE2022           3D

 35 37  0  0  0  0  0  0  0  0999 V2000
   -2.7720   -0.2520    2.9850 C   0  0  0  0  0  0  0  0  0  0  0  0
   -1.3250    0.2250    2.8270 C   0  0  0  0  0  0  0  0  0  0  0  0
   -1.0650    0.6990    1.3920 C   0  0  0  0  0  0  0  0  0  0  0  0
    0.3750    1.1870    1.1770 C   0  0  0  0  0  0  0  0  0  0  0  0
    0.6210    1.6140   -0.2110 N   0  0  0  0  0  0  0  0  0  0  0  0
    1.1170    0.7370   -1.1580 C   0  0  0  0  0  0  0  0  0  0  0  0
    1.2330    1.1290   -2.3090 O   0  0  0  0  0  0  0  0  0  0  0  0
    1.5100   -0.6960   -0.7870 C   0  0  0  0  0  0  0  0  0  0  0  0
    2.7280   -0.8460    0.0580 N   0  0  0  0  0  0  0  0  0  0  0  0
    3.2340   -2.1270    0.3000 C   0  0  0  0  0  0  0  0  0  0  0  0
    4.6180   -2.2640    0.4410 C   0  0  0  0  0  0  0  0  0  0  0  0
    5.1720   -3.5200    0.6740 C   0  0  0  0  0  0  0  0  0  0  0  0
    4.3530   -4.6410    0.7710 C   0  0  0  0  0  0  0  0  0  0  0  0
    2.9720   -4.4880    0.6330 C   0  0  0  0  0  0  0  0  0  0  0  0
    2.1270   -5.6090    0.7310 N   0  0  0  0  0  0  0  0  0  0  0  0
    2.1090   -6.6710   -0.1130 C   0  0  0  0  0  0  0  0  0  0  0  0
    1.3040   -7.5360    0.1360 O   0  0  0  0  0  0  0  0  0  0  0  0
    3.0340   -6.7400   -1.3000 C   0  0  0  0  0  0  0  0  0  0  0  0
    2.3980   -3.2410    0.4100 C   0  0  0  0  0  0  0  0  0  0  0  0
    0.2770    3.0040   -0.5350 C   0  0  0  0  0  0  0  0  0  0  0  0
   -0.7440    3.3040   -1.4090 C   0  0  0  0  0  0  0  0  0  0  0  0
   -1.3650    2.3920   -2.2290 N   0  0  0  0  0  0  0  0  0  0  0  0
   -1.1970    4.6200   -1.5350 N   0  0  0  0  0  0  0  0  0  0  0  0
   -2.5460    4.9560   -2.0180 C   0  0  0  0  0  0  0  0  0  0  0  0
   -3.5790    4.9090   -0.9100 C   0  0  0  0  0  0  0  0  0  0  0  0
   -3.9660    6.0820   -0.2620 C   0  0  0  0  0  0  0  0  0  0  0  0
   -4.9080    6.0400    0.7620 C   0  0  0  0  0  0  0  0  0  0  0  0
   -5.4640    4.8250    1.1480 C   0  0  0  0  0  0  0  0  0  0  0  0
   -5.0750    3.6510    0.5120 C   0  0  0  0  0  0  0  0  0  0  0  0
   -4.1340    3.6930   -0.5120 C   0  0  0  0  0  0  0  0  0  0  0  0
   -0.4760    5.6560   -0.9480 C   0  0  0  0  0  0  0  0  0  0  0  0
   -0.7750    6.8340   -1.0940 O   0  0  0  0  0  0  0  0  0  0  0  0
    0.6020    5.3490   -0.1750 N   0  0  0  0  0  0  0  0  0  0  0  0
    0.9840    4.0710    0.1050 C   0  0  0  0  0  0  0  0  0  0  0  0
    1.9180    3.9850    0.9080 O   0  0  0  0  0  0  0  0  0  0  0  0
  1  2  1  0  0  0  0
  2  3  1  0  0  0  0
  3  4  1  0  0  0  0
  4  5  1  0  0  0  0
  5  6  1  0  0  0  0
  5 20  1  0  0  0  0
  6  7  2  0  0  0  0
  6  8  1  0  0  0  0
  8  9  1  0  0  0  0
  9 10  1  0  0  0  0
 10 11  1  0  0  0  0
 10 19  2  0  0  0  0
 11 12  2  0  0  0  0
 12 13  1  0  0  0  0
 13 14  2  0  0  0  0
 14 15  1  0  0  0  0
 14 19  1  0  0  0  0
 15 16  1  0  0  0  0
 16 17  2  0  0  0  0
 16 18  1  0  0  0  0
 20 21  2  0  0  0  0
 20 34  1  0  0  0  0
 21 22  1  0  0  0  0
 21 23  1  0  0  0  0
 23 24  1  0  0  0  0
 23 31  1  0  0  0  0
 24 25  1  0  0  0  0
 25 26  1  0  0  0  0
 25 30  2  0  0  0  0
 26 27  2  0  0  0  0
 27 28  1  0  0  0  0
 28 29  2  0  0  0  0
 29 30  1  0  0  0  0
 31 32  2  0  0  0  0
 31 33  1  0  0  0  0
 33 34  1  0  0  0  0
 34 35  2  0  0  0  0
M  END
>  <NScode>
NS-006911332-0000

>  <a_acc>
4

>  <a_don>
4

>  <chiral>
0

>  <opr_nrot>
10

>  <Weight>
478.55298

>  <druglike>
0

>  <lip_druglike>
1

>  <lip_violation>
0

>  <logS>
-5.0976601

$$$$
