NS-016075765-0000
  MOE2022           3D

 23 25  0  0  1  0  0  0  0  0999 V2000
   -1.1640   -0.8550   -0.4350 C   0  0  0  0  0  0  0  0  0  0  0  0
   -0.2700   -1.6480    0.2290 N   0  0  0  0  0  0  0  0  0  0  0  0
   -1.1660    0.5730   -0.4650 N   0  0  0  0  0  0  0  0  0  0  0  0
   -0.5650   -2.9770    0.0290 N   0  0  0  0  0  0  0  0  0  0  0  0
   -2.0250   -1.6880   -1.0630 C   0  0  0  0  0  0  0  0  0  0  0  0
    2.2160   -1.4100    0.2060 C   0  0  0  0  0  0  0  0  0  0  0  0
   -1.1820    1.3930    0.6310 C   0  0  0  0  0  0  0  0  0  0  0  0
    0.9170   -1.2510    0.9840 C   0  0  0  0  0  0  0  0  0  0  0  0
    2.8630   -0.3190   -0.3960 C   0  0  0  0  0  0  0  0  0  0  0  0
   -1.6210   -2.9790   -0.7420 C   0  0  0  0  0  0  0  0  0  0  0  0
    4.0480   -0.5040   -1.1060 C   0  0  0  0  0  0  0  0  0  0  0  0
   -1.1810    0.9170    1.7470 O   0  0  0  0  0  0  0  0  0  0  0  0
    2.7690   -2.6840    0.0670 C   0  0  0  0  0  0  0  0  0  0  0  0
   -3.6050    3.3090    1.1080 C   0  0  0  0  0  0  0  0  0  0  0  0
   -1.2170    2.8780    0.3740 C   0  0  0  0  0  0  0  0  0  0  0  0
    4.5910   -1.7800   -1.2260 C   0  0  0  0  0  0  0  0  0  0  0  0
   -4.2410    4.4550    1.3380 C   0  0  0  0  0  0  0  0  0  0  0  0
    2.2190    1.2910   -0.2890 Cl  0  0  0  0  0  0  0  0  0  0  0  0
    3.9510   -2.8730   -0.6420 C   0  0  0  0  0  0  0  0  0  0  0  0
    6.0630   -2.0130   -2.1060 Cl  0  0  0  0  0  0  0  0  0  0  0  0
   -2.6080    3.4090   -0.0140 C   0  0  3  0  0  0  0  0  0  0  0  0
   -3.7930    5.5520    0.4180 C   0  0  0  0  0  0  0  0  0  0  0  0
   -2.6160    4.9210   -0.3580 C   0  0  0  0  0  0  0  0  0  0  0  0
  1  2  1  0  0  0  0
  1  3  1  0  0  0  0
  1  5  2  0  0  0  0
  2  4  1  0  0  0  0
  2  8  1  0  0  0  0
  3  7  1  0  0  0  0
  4 10  2  0  0  0  0
  5 10  1  0  0  0  0
  6  8  1  0  0  0  0
  6  9  2  0  0  0  0
  6 13  1  0  0  0  0
  7 12  2  0  0  0  0
  7 15  1  0  0  0  0
  9 11  1  0  0  0  0
  9 18  1  0  0  0  0
 11 16  2  0  0  0  0
 13 19  2  0  0  0  0
 14 17  2  0  0  0  0
 14 21  1  0  0  0  0
 15 21  1  0  0  0  0
 16 19  1  0  0  0  0
 16 20  1  0  0  0  0
 17 22  1  0  0  0  0
 21 23  1  0  0  0  0
 22 23  1  0  0  0  0
M  END
>  <NScode>
NS-016075765-0000

>  <a_acc>
2

>  <a_don>
1

>  <chiral>
1

>  <opr_nrot>
5

>  <Weight>
350.24899

>  <druglike>
1

>  <lip_druglike>
1

>  <lip_violation>
0

>  <logS>
-4.46841

$$$$
