NS-042383015-0000
  MOE2022           3D

 32 37  0  0  1  0  0  0  0  0999 V2000
   -0.2150   -4.6040    1.5460 F   0  0  0  0  0  0  0  0  0  0  0  0
   -0.1980   -3.7950    0.4540 C   0  0  0  0  0  0  0  0  0  0  0  0
   -1.4040   -3.2950   -0.0120 C   0  0  0  0  0  0  0  0  0  0  0  0
   -1.3720   -2.4570   -1.1300 C   0  0  0  0  0  0  0  0  0  0  0  0
   -2.5530   -1.8730   -1.6030 N   0  0  0  0  0  0  0  0  0  0  0  0
   -3.3360   -0.9730   -0.9400 C   0  0  0  0  0  0  0  0  0  0  0  0
   -4.2770   -0.5710   -1.5950 O   0  0  0  0  0  0  0  0  0  0  0  0
   -3.0420   -0.4800    0.5000 C   0  0  3  0  0  0  0  0  0  0  0  0
   -4.3120   -0.3500    1.3390 C   0  0  0  0  0  0  0  0  0  0  0  0
   -4.7690    1.0930    1.1520 C   0  0  0  0  0  0  0  0  0  0  0  0
   -3.4330    1.8360    1.0310 C   0  0  0  0  0  0  0  0  0  0  0  0
   -2.4380    0.8670    0.5640 N   0  0  0  0  0  0  0  0  0  0  0  0
   -1.1130    1.0400    0.3490 C   0  0  0  0  0  0  0  0  0  0  0  0
   -0.3930    0.0410    0.2970 O   0  0  0  0  0  0  0  0  0  0  0  0
   -0.4690    2.4500    0.1140 C   0  0  0  0  0  0  0  0  0  0  0  0
   -1.0470    3.1400   -1.1510 C   0  0  0  0  0  0  0  0  0  0  0  0
   -0.3870    4.5080   -1.4160 C   0  0  0  0  0  0  0  0  0  0  0  0
    1.1170    4.3010   -1.6620 C   0  0  0  0  0  0  0  0  0  0  0  0
    1.7600    3.6470   -0.4270 C   0  0  0  0  0  0  0  0  0  0  0  0
    1.5740    4.5630    0.7940 C   0  0  0  0  0  0  0  0  0  0  0  0
    0.0740    4.7750    1.0560 C   0  0  0  0  0  0  0  0  0  0  0  0
   -0.5780    5.4150   -0.1860 C   0  0  0  0  0  0  0  0  0  0  0  0
   -0.5970    3.4140    1.3270 C   0  0  0  0  0  0  0  0  0  0  0  0
    1.0610    2.3020   -0.1510 C   0  0  0  0  0  0  0  0  0  0  0  0
   -0.1770   -2.1680   -1.8010 C   0  0  0  0  0  0  0  0  0  0  0  0
    1.0270   -2.6810   -1.3220 C   0  0  0  0  0  0  0  0  0  0  0  0
    1.0110   -3.4840   -0.1820 C   0  0  0  0  0  0  0  0  0  0  0  0
    2.2650   -3.9800    0.3200 N   0  0  0  0  0  0  0  0  0  0  0  0
    3.3950   -3.2320    0.5700 C   0  0  0  0  0  0  0  0  0  0  0  0
    4.3230   -4.0840    1.0510 C   0  0  0  0  0  0  0  0  0  0  0  0
    3.7310   -5.3190    1.0820 N   0  3  0  0  0  0  0  0  0  0  0  0
    2.4880   -5.2490    0.6450 C   0  0  0  0  0  0  0  0  0  0  0  0
  1  2  1  0  0  0  0
  2  3  1  0  0  0  0
  2 27  2  0  0  0  0
  3  4  2  0  0  0  0
  4  5  1  0  0  0  0
  4 25  1  0  0  0  0
  5  6  1  0  0  0  0
  6  7  2  0  0  0  0
  6  8  1  0  0  0  0
  8  9  1  0  0  0  0
  8 12  1  0  0  0  0
  9 10  1  0  0  0  0
 10 11  1  0  0  0  0
 11 12  1  0  0  0  0
 12 13  1  0  0  0  0
 13 14  2  0  0  0  0
 13 15  1  0  0  0  0
 15 16  1  0  0  0  0
 15 23  1  0  0  0  0
 15 24  1  0  0  0  0
 16 17  1  0  0  0  0
 17 18  1  0  0  0  0
 17 22  1  0  0  0  0
 18 19  1  0  0  0  0
 19 20  1  0  0  0  0
 19 24  1  0  0  0  0
 20 21  1  0  0  0  0
 21 22  1  0  0  0  0
 21 23  1  0  0  0  0
 25 26  2  0  0  0  0
 26 27  1  0  0  0  0
 27 28  1  0  0  0  0
 28 29  1  0  0  0  0
 28 32  1  0  0  0  0
 29 30  2  0  0  0  0
 30 31  1  0  0  0  0
 31 32  2  0  0  0  0
M  CHG  1  31   1
M  END
>  <NScode>
NS-042383015-0000

>  <a_acc>
3

>  <a_don>
1

>  <chiral>
1

>  <opr_nrot>
5

>  <Weight>
436.53101

>  <druglike>
1

>  <lip_druglike>
1

>  <lip_violation>
0

>  <logS>
-6.22087

$$$$
