NS-022058880-0000
  MOE2022           3D

 27 29  0  0  0  0  0  0  0  0999 V2000
    1.3030   -1.0010   -0.2510 C   0  0  0  0  0  0  0  0  0  0  0  0
    0.4820   -1.7960    0.5000 C   0  0  0  0  0  0  0  0  0  0  0  0
    0.5020   -3.2500    0.5850 C   0  0  0  0  0  0  0  0  0  0  0  0
   -0.7150   -3.9370    0.6390 C   0  0  0  0  0  0  0  0  0  0  0  0
   -0.7320   -5.3240    0.7220 C   0  0  0  0  0  0  0  0  0  0  0  0
   -1.9670   -5.9430    0.7860 O   0  0  0  0  0  0  0  0  0  0  0  0
   -2.3390   -7.1120    0.1850 C   0  0  0  0  0  0  0  0  0  0  0  0
   -3.4510   -7.6790    0.6570 N   0  0  0  0  0  0  0  0  0  0  0  0
   -3.8650   -8.8070    0.1050 C   0  0  0  0  0  0  0  0  0  0  0  0
   -3.1520   -9.3730   -0.9400 C   0  0  0  0  0  0  0  0  0  0  0  0
   -2.0070   -8.7340   -1.3890 C   0  0  0  0  0  0  0  0  0  0  0  0
   -1.6100   -7.6080   -0.8220 N   0  0  0  0  0  0  0  0  0  0  0  0
    0.4530   -6.0580    0.7730 C   0  0  0  0  0  0  0  0  0  0  0  0
    1.6670   -5.3830    0.7350 C   0  0  0  0  0  0  0  0  0  0  0  0
    1.6940   -3.9940    0.6480 C   0  0  0  0  0  0  0  0  0  0  0  0
    1.1670    0.4520   -0.2270 C   0  0  0  0  0  0  0  0  0  0  0  0
    2.2940    1.2820   -0.1320 C   0  0  0  0  0  0  0  0  0  0  0  0
    2.1580    2.6640   -0.0990 C   0  0  0  0  0  0  0  0  0  0  0  0
    0.8800    3.2510   -0.1660 C   0  0  0  0  0  0  0  0  0  0  0  0
   -0.2480    2.4320   -0.2650 C   0  0  0  0  0  0  0  0  0  0  0  0
   -0.1020    1.0490   -0.2950 C   0  0  0  0  0  0  0  0  0  0  0  0
    0.7300    4.6290   -0.1360 O   0  0  0  0  0  0  0  0  0  0  0  0
   -0.5160    5.3570   -0.2300 C   0  0  0  0  0  0  0  0  0  0  0  0
    3.3510    3.3690    0.0050 O   0  0  0  0  0  0  0  0  0  0  0  0
    3.5360    4.8000    0.0680 C   0  0  0  0  0  0  0  0  0  0  0  0
    2.3160   -1.5360   -1.1260 C   0  0  0  0  0  0  0  0  0  0  0  0
    3.1280   -1.9580   -1.8110 N   0  0  0  0  0  0  0  0  0  0  0  0
  1  2  2  0  0  0  0
  1 16  1  0  0  0  0
  1 26  1  0  0  0  0
  2  3  1  0  0  0  0
  3  4  2  0  0  0  0
  3 15  1  0  0  0  0
  4  5  1  0  0  0  0
  5  6  1  0  0  0  0
  5 13  2  0  0  0  0
  6  7  1  0  0  0  0
  7  8  1  0  0  0  0
  7 12  2  0  0  0  0
  8  9  2  0  0  0  0
  9 10  1  0  0  0  0
 10 11  2  0  0  0  0
 11 12  1  0  0  0  0
 13 14  1  0  0  0  0
 14 15  2  0  0  0  0
 16 17  1  0  0  0  0
 16 21  2  0  0  0  0
 17 18  2  0  0  0  0
 18 19  1  0  0  0  0
 18 24  1  0  0  0  0
 19 20  2  0  0  0  0
 19 22  1  0  0  0  0
 20 21  1  0  0  0  0
 22 23  1  0  0  0  0
 24 25  1  0  0  0  0
 26 27  3  0  0  0  0
M  END
>  <NScode>
NS-022058880-0000

>  <a_acc>
5

>  <a_don>
0

>  <chiral>
0

>  <opr_nrot>
7

>  <Weight>
359.38498

>  <druglike>
1

>  <lip_druglike>
1

>  <lip_violation>
0

>  <logS>
-5.4071898

$$$$
