NS-019603697-0000
  MOE2022           3D

 22 24  0  0  1  0  0  0  0  0999 V2000
    0.1720   -4.3770   -0.2490 N   0  0  0  0  0  0  0  0  0  0  0  0
   -0.8370   -3.5780   -0.0970 C   0  0  0  0  0  0  0  0  0  0  0  0
   -2.2190   -4.3570    0.5650 S   0  0  0  0  0  0  0  0  0  0  0  0
   -1.3860   -5.7800    0.6400 N   0  0  0  0  0  0  0  0  0  0  0  0
   -0.8020   -2.2070   -0.4540 N   0  0  0  0  0  0  0  0  0  0  0  0
   -0.1880   -5.6090    0.1840 C   0  0  0  0  0  0  0  0  0  0  0  0
    1.1460    1.4980   -0.1050 C   0  0  0  0  0  0  0  0  0  0  0  0
    0.1650    0.8190   -0.7430 N   0  0  0  0  0  0  0  0  0  0  0  0
    0.8380    2.7450    0.7260 C   0  0  0  0  0  0  0  0  0  0  0  0
    0.5440   -1.6790   -0.8180 C   0  0  0  0  0  0  0  0  0  0  0  0
    0.5430   -0.3430   -1.5810 C   0  0  0  0  0  0  0  0  0  0  0  0
    2.3140    1.1290   -0.1700 O   0  0  0  0  0  0  0  0  0  0  0  0
    1.6370    4.4850   -0.9380 C   0  0  0  0  0  0  0  0  0  0  0  0
    1.8530    5.7910   -0.7960 C   0  0  0  0  0  0  0  0  0  0  0  0
   -2.1910   -0.1220   -0.6420 C   0  0  0  0  0  0  0  0  0  0  0  0
   -1.7100   -1.2780    0.2480 C   0  0  0  0  0  0  0  0  0  0  0  0
    0.4850    3.9890   -0.1080 C   0  0  3  0  0  0  0  0  0  0  0  0
   -1.2740    1.1140   -0.6280 C   0  0  0  0  0  0  0  0  0  0  0  0
    0.7980   -6.7560    0.1420 C   0  0  0  0  0  0  0  0  0  0  0  0
    0.8900    6.4260    0.1640 C   0  0  0  0  0  0  0  0  0  0  0  0
    0.1170    5.2250    0.7520 C   0  0  0  0  0  0  0  0  0  0  0  0
    1.8550   -6.6810    1.2530 C   0  0  0  0  0  0  0  0  0  0  0  0
  1  2  2  0  0  0  0
  1  6  1  0  0  0  0
  2  3  1  0  0  0  0
  2  5  1  0  0  0  0
  3  4  1  0  0  0  0
  4  6  2  0  0  0  0
  5 10  1  0  0  0  0
  5 16  1  0  0  0  0
  6 19  1  0  0  0  0
  7  8  1  0  0  0  0
  7  9  1  0  0  0  0
  7 12  2  0  0  0  0
  8 11  1  0  0  0  0
  8 18  1  0  0  0  0
  9 17  1  0  0  0  0
 10 11  1  0  0  0  0
 13 14  2  0  0  0  0
 13 17  1  0  0  0  0
 14 20  1  0  0  0  0
 15 16  1  0  0  0  0
 15 18  1  0  0  0  0
 17 21  1  0  0  0  0
 19 22  1  0  0  0  0
 20 21  1  0  0  0  0
M  END
>  <NScode>
NS-019603697-0000

>  <a_acc>
3

>  <a_don>
0

>  <chiral>
1

>  <opr_nrot>
7

>  <Weight>
320.461

>  <druglike>
1

>  <lip_druglike>
1

>  <lip_violation>
0

>  <logS>
-2.8654001

$$$$
