NS-014053482-0000
  MOE2022           3D

 31 32  0  0  0  0  0  0  0  0999 V2000
    6.7760    0.2070    1.9190 S   0  0  0  0  0  0  0  0  0  0  0  0
   -8.5590   -2.1020   -0.1720 N   0  3  0  0  0  0  0  0  0  0  0  0
    5.4520    1.2630    1.2920 C   0  0  0  0  0  0  0  0  0  0  0  0
    7.5730   -0.3010    0.5530 N   0  0  0  0  0  0  0  0  0  0  0  0
   -3.3730    0.2860    0.1420 C   0  0  0  0  0  0  0  0  0  0  0  0
    4.1790    0.7360    1.0590 C   0  0  0  0  0  0  0  0  0  0  0  0
    6.1820   -0.9170    2.5610 O   0  0  0  0  0  0  0  0  0  0  0  0
    7.6550    1.0070    2.7010 O   0  0  0  0  0  0  0  0  0  0  0  0
   -7.2310   -1.5000   -0.0950 C   0  0  0  0  0  0  0  0  0  0  0  0
    1.0600    1.2160   -0.7130 C   0  0  0  0  0  0  0  0  0  0  0  0
   -8.9430   -2.6160   -1.2100 O   0  5  0  0  0  0  0  0  0  0  0  0
    1.8990    0.9690    0.3420 N   0  0  0  0  0  0  0  0  0  0  0  0
   -9.3000   -2.0940    0.7970 O   0  0  0  0  0  0  0  0  0  0  0  0
   -4.6980   -0.3390    0.0440 C   0  0  0  0  0  0  0  0  0  0  0  0
    3.1680    1.5530    0.5570 C   0  0  0  0  0  0  0  0  0  0  0  0
   -0.2500    0.4730   -0.7410 C   0  0  0  0  0  0  0  0  0  0  0  0
   -2.8090    0.4850    1.2100 O   0  0  0  0  0  0  0  0  0  0  0  0
    1.3850    1.9750   -1.6000 O   0  0  0  0  0  0  0  0  0  0  0  0
   -6.8380   -0.8570    1.0840 C   0  0  0  0  0  0  0  0  0  0  0  0
   -6.3790   -1.5820   -1.2030 C   0  0  0  0  0  0  0  0  0  0  0  0
   -2.7230    0.6840   -0.9980 N   0  0  0  0  0  0  0  0  0  0  0  0
   -5.5730   -0.2830    1.1450 C   0  0  0  0  0  0  0  0  0  0  0  0
   -5.1160   -1.0030   -1.1260 C   0  0  0  0  0  0  0  0  0  0  0  0
   -1.4450    1.4030   -0.9750 C   0  0  0  0  0  0  0  0  0  0  0  0
    5.6780    2.6230    1.0500 C   0  0  0  0  0  0  0  0  0  0  0  0
    4.6590    3.4370    0.5560 C   0  0  0  0  0  0  0  0  0  0  0  0
    8.3980    0.6570   -0.1830 C   0  0  0  0  0  0  0  0  0  0  0  0
    6.9490   -1.3140   -0.2990 C   0  0  0  0  0  0  0  0  0  0  0  0
    3.4010    2.9050    0.3040 C   0  0  0  0  0  0  0  0  0  0  0  0
    7.4270   -2.7180    0.0730 C   0  0  0  0  0  0  0  0  0  0  0  0
    9.6940    0.0230   -0.6950 C   0  0  0  0  0  0  0  0  0  0  0  0
  1  3  1  0  0  0  0
  1  4  1  0  0  0  0
  1  7  2  0  0  0  0
  1  8  2  0  0  0  0
  2  9  1  0  0  0  0
  2 11  1  0  0  0  0
  2 13  2  0  0  0  0
  3  6  2  0  0  0  0
  3 25  1  0  0  0  0
  4 27  1  0  0  0  0
  4 28  1  0  0  0  0
  5 14  1  0  0  0  0
  5 17  2  0  0  0  0
  5 21  1  0  0  0  0
  6 15  1  0  0  0  0
  9 19  2  0  0  0  0
  9 20  1  0  0  0  0
 10 12  1  0  0  0  0
 10 16  1  0  0  0  0
 10 18  2  0  0  0  0
 12 15  1  0  0  0  0
 14 22  2  0  0  0  0
 14 23  1  0  0  0  0
 15 29  2  0  0  0  0
 16 24  1  0  0  0  0
 19 22  1  0  0  0  0
 20 23  2  0  0  0  0
 21 24  1  0  0  0  0
 25 26  2  0  0  0  0
 26 29  1  0  0  0  0
 27 31  1  0  0  0  0
 28 30  1  0  0  0  0
M  CHG  1   2   1
M  CHG  1  11  -1
M  END
>  <NScode>
NS-014053482-0000

>  <a_acc>
4

>  <a_don>
2

>  <chiral>
0

>  <opr_nrot>
9

>  <Weight>
448.5

>  <druglike>
1

>  <lip_druglike>
1

>  <lip_violation>
0

>  <logS>
-4.76757

$$$$
