NS-000563435-0000Chemistry 50129
  MOE2022           3D

 12 13  0  0  0  0  0  0  0  0999 V2000
    9.0670    6.4760   -0.0010 C   0  0  0  0  0  0  0  0  0  0  0  0
    8.9720    7.8830    0.0040 C   0  0  0  0  0  0  0  0  0  0  0  0
    7.8090    8.5180    0.0050 N   0  0  0  0  0  0  0  0  0  0  0  0
    6.6990    7.7480    0.0010 C   0  0  0  0  0  0  0  0  0  0  0  0
    6.6590    6.3580   -0.0030 C   0  0  0  0  0  0  0  0  0  0  0  0
    7.9100    5.7250   -0.0040 C   0  0  0  0  0  0  0  0  0  0  0  0
    5.4090    8.2080    0.0020 N   0  0  0  0  0  0  0  0  0  0  0  0
    4.5480    7.1480   -0.0030 C   0  0  0  0  0  0  0  0  0  0  0  0
    5.2790    5.9810   -0.0060 C   0  0  0  0  0  0  0  0  0  0  0  0
    8.0270    4.3750   -0.0090 F   0  0  0  0  0  0  0  0  0  0  0  0
    4.6950    4.6570   -0.0130 C   0  0  0  0  0  0  0  0  0  0  0  0
    5.3350    3.6290   -0.0170 O   0  0  0  0  0  0  0  0  0  0  0  0
  1  2  1  0  0  0  0
  1  6  2  0  0  0  0
  2  3  2  0  0  0  0
  3  4  1  0  0  0  0
  4  5  2  0  0  0  0
  4  7  1  0  0  0  0
  5  6  1  0  0  0  0
  5  9  1  0  0  0  0
  6 10  1  0  0  0  0
  7  8  1  0  0  0  0
  8  9  2  0  0  0  0
  9 11  1  0  0  0  0
 11 12  2  0  0  0  0
M  END
>  <NScode>
NS-000563435-0000

>  <a_acc>
3

>  <a_don>
2

>  <chiral>
0

>  <opr_nrot>
1

>  <Weight>
164.13899

>  <druglike>
1

>  <lip_druglike>
1

>  <lip_violation>
0

>  <logS>
-2.42735

$$$$
