NS-042290670-0000
  MOE2022           3D

 35 38  0  0  1  0  0  0  0  0999 V2000
    0.7780   -4.5630    0.7310 C   0  0  0  0  0  0  0  0  0  0  0  0
    1.6650   -3.4490    0.7560 O   0  0  0  0  0  0  0  0  0  0  0  0
    1.5900   -2.6390   -0.4210 C   0  0  0  0  0  0  0  0  0  0  0  0
    0.2550   -1.8820   -0.6290 C   0  0  3  0  0  0  0  0  0  0  0  0
   -0.4870   -1.5390    0.6390 N   0  0  0  0  0  0  0  0  0  0  0  0
   -0.2950   -0.4630    1.4390 C   0  0  0  0  0  0  0  0  0  0  0  0
   -1.2170   -0.1800    2.1850 O   0  0  0  0  0  0  0  0  0  0  0  0
    0.9300    0.3120    1.3840 C   0  0  0  0  0  0  0  0  0  0  0  0
    0.9000    1.6550    1.0350 C   0  0  0  0  0  0  0  0  0  0  0  0
    2.0240    2.3610    0.9840 N   0  0  0  0  0  0  0  0  0  0  0  0
    3.1840    1.7720    1.2830 C   0  0  0  0  0  0  0  0  0  0  0  0
    4.4700    2.5800    1.1920 C   0  0  0  0  0  0  0  0  0  0  0  0
    5.3570    2.1680    0.0960 N   0  0  0  0  0  0  0  0  0  0  0  0
    6.6330    2.5730    0.0360 C   0  0  0  0  0  0  0  0  0  0  0  0
    7.0960    3.4410    0.7580 O   0  0  0  0  0  0  0  0  0  0  0  0
    7.3450    1.9100   -0.8790 O   0  0  0  0  0  0  0  0  0  0  0  0
    8.7790    2.1320   -1.0130 C   0  0  0  0  0  0  0  0  0  0  0  0
    9.6040    1.5370    0.1430 C   0  0  0  0  0  0  0  0  0  0  0  0
   11.0960    1.7650   -0.0590 C   0  0  0  0  0  0  0  0  0  0  0  0
   11.7970    2.9590   -0.1690 C   0  0  0  0  0  0  0  0  0  0  0  0
   13.1780    2.9200   -0.3630 C   0  0  0  0  0  0  0  0  0  0  0  0
   13.8460    1.6950   -0.4430 C   0  0  0  0  0  0  0  0  0  0  0  0
   13.1380    0.5010   -0.3260 C   0  0  0  0  0  0  0  0  0  0  0  0
   11.7580    0.5460   -0.1320 C   0  0  0  0  0  0  0  0  0  0  0  0
   10.8030   -0.5250    0.0280 C   0  0  0  0  0  0  0  0  0  0  0  0
   10.9930   -1.9060    0.0370 C   0  0  0  0  0  0  0  0  0  0  0  0
    9.8940   -2.7400    0.2270 C   0  0  0  0  0  0  0  0  0  0  0  0
    8.6190   -2.1960    0.4080 C   0  0  0  0  0  0  0  0  0  0  0  0
    8.4360   -0.8130    0.3970 C   0  0  0  0  0  0  0  0  0  0  0  0
    9.5350    0.0150    0.2000 C   0  0  0  0  0  0  0  0  0  0  0  0
    3.2650    0.4860    1.6360 N   0  0  0  0  0  0  0  0  0  0  0  0
    2.1600   -0.2490    1.7000 C   0  0  0  0  0  0  0  0  0  0  0  0
   -0.5830   -2.6130   -1.6810 C   0  0  0  0  0  0  0  0  0  0  0  0
   -0.3030   -2.3850   -2.8780 O   0  5  0  0  0  0  0  0  0  0  0  0
   -1.4560   -3.4240   -1.2920 O   0  0  0  0  0  0  0  0  0  0  0  0
  1  2  1  0  0  0  0
  2  3  1  0  0  0  0
  3  4  1  0  0  0  0
  4  5  1  0  0  0  0
  4 33  1  0  0  0  0
  5  6  1  0  0  0  0
  6  7  2  0  0  0  0
  6  8  1  0  0  0  0
  8  9  1  0  0  0  0
  8 32  2  0  0  0  0
  9 10  2  0  0  0  0
 10 11  1  0  0  0  0
 11 12  1  0  0  0  0
 11 31  2  0  0  0  0
 12 13  1  0  0  0  0
 13 14  1  0  0  0  0
 14 15  2  0  0  0  0
 14 16  1  0  0  0  0
 16 17  1  0  0  0  0
 17 18  1  0  0  0  0
 18 19  1  0  0  0  0
 18 30  1  0  0  0  0
 19 20  1  0  0  0  0
 19 24  2  0  0  0  0
 20 21  2  0  0  0  0
 21 22  1  0  0  0  0
 22 23  2  0  0  0  0
 23 24  1  0  0  0  0
 24 25  1  0  0  0  0
 25 26  1  0  0  0  0
 25 30  2  0  0  0  0
 26 27  2  0  0  0  0
 27 28  1  0  0  0  0
 28 29  2  0  0  0  0
 29 30  1  0  0  0  0
 31 32  1  0  0  0  0
 33 34  1  0  0  0  0
 33 35  2  0  0  0  0
M  CHG  1  34  -1
M  END
>  <NScode>
NS-042290670-0000

>  <a_acc>
6

>  <a_don>
4

>  <chiral>
1

>  <opr_nrot>
9

>  <Weight>
476.48898

>  <druglike>
1

>  <lip_druglike>
1

>  <lip_violation>
0

>  <logS>
-4.8798299

$$$$
