NS-013945534-0000
  MOE2022           3D

 28 31  0  0  1  0  0  0  0  0999 V2000
    2.1500    0.5280   -0.6170 N   0  0  0  0  0  0  0  0  0  0  0  0
    2.6840   -0.3910    0.2390 C   0  0  0  0  0  0  0  0  0  0  0  0
    1.9440   -1.4680    0.1910 N   0  0  0  0  0  0  0  0  0  0  0  0
   -4.8730    0.2480    1.6470 S   0  0  0  0  0  0  0  0  0  0  0  0
    1.0510   -0.0450   -1.1480 C   0  0  0  0  0  0  0  0  0  0  0  0
    0.9140   -1.2550   -0.6860 N   0  0  0  0  0  0  0  0  0  0  0  0
    3.8710   -0.2070    1.0610 C   0  0  0  0  0  0  0  0  0  0  0  0
   -3.1190    0.0860    1.5420 C   0  0  0  0  0  0  0  0  0  0  0  0
    0.0080    0.7850   -2.2780 S   0  0  0  0  0  0  0  0  0  0  0  0
    4.5790    1.3390    1.4330 S   0  0  0  0  0  0  0  0  0  0  0  0
    2.6400    1.8270   -0.9700 C   0  0  0  0  0  0  0  0  0  0  0  0
   -5.3040    1.4050    0.9430 O   0  0  0  0  0  0  0  0  0  0  0  0
   -5.2790    0.0820    3.0000 O   0  0  0  0  0  0  0  0  0  0  0  0
   -2.3510   -0.5080   -1.4190 C   0  0  0  0  0  0  0  0  0  0  0  0
   -2.0090   -1.1960   -0.3250 N   0  0  0  0  0  0  0  0  0  0  0  0
   -2.7680   -1.2820    0.9160 C   0  0  3  0  0  0  0  0  0  0  0  0
   -5.2780   -1.2110    0.7380 C   0  0  0  0  0  0  0  0  0  0  0  0
    4.5820   -1.2100    1.6850 C   0  0  0  0  0  0  0  0  0  0  0  0
    5.8060    0.6070    2.3980 C   0  0  0  0  0  0  0  0  0  0  0  0
    5.6730   -0.7500    2.4350 C   0  0  0  0  0  0  0  0  0  0  0  0
   -3.4370    0.0480   -1.4920 O   0  0  0  0  0  0  0  0  0  0  0  0
   -4.0440   -2.1340    0.7090 C   0  0  0  0  0  0  0  0  0  0  0  0
   -1.3390   -0.4320   -2.5450 C   0  0  0  0  0  0  0  0  0  0  0  0
    2.0260    2.9590   -0.4320 C   0  0  0  0  0  0  0  0  0  0  0  0
    3.7200    1.9300   -1.8480 C   0  0  0  0  0  0  0  0  0  0  0  0
    4.1930    3.1930   -2.1870 C   0  0  0  0  0  0  0  0  0  0  0  0
    2.5090    4.2150   -0.7800 C   0  0  0  0  0  0  0  0  0  0  0  0
    3.5900    4.3330   -1.6540 C   0  0  0  0  0  0  0  0  0  0  0  0
  1  2  1  0  0  0  0
  1  5  1  0  0  0  0
  1 11  1  0  0  0  0
  2  3  2  0  0  0  0
  2  7  1  0  0  0  0
  3  6  1  0  0  0  0
  4  8  1  0  0  0  0
  4 12  2  0  0  0  0
  4 13  2  0  0  0  0
  4 17  1  0  0  0  0
  5  6  2  0  0  0  0
  5  9  1  0  0  0  0
  7 10  1  0  0  0  0
  7 18  2  0  0  0  0
  8 16  1  0  0  0  0
  9 23  1  0  0  0  0
 10 19  1  0  0  0  0
 11 24  1  0  0  0  0
 11 25  2  0  0  0  0
 14 15  1  0  0  0  0
 14 21  2  0  0  0  0
 14 23  1  0  0  0  0
 15 16  1  0  0  0  0
 16 22  1  0  0  0  0
 17 22  1  0  0  0  0
 18 20  1  0  0  0  0
 19 20  2  0  0  0  0
 24 27  2  0  0  0  0
 25 26  1  0  0  0  0
 26 28  2  0  0  0  0
 27 28  1  0  0  0  0
M  END
>  <NScode>
NS-013945534-0000

>  <a_acc>
5

>  <a_don>
1

>  <chiral>
1

>  <opr_nrot>
7

>  <Weight>
434.565

>  <druglike>
1

>  <lip_druglike>
1

>  <lip_violation>
0

>  <logS>
-6.2669501

$$$$
