NS-013332846-0000
  MOE2022           3D

 26 27  0  0  0  0  0  0  0  0999 V2000
    1.3950   -0.9600   -0.2120 O   0  0  0  0  0  0  0  0  0  0  0  0
    2.6570   -0.8230   -0.5940 C   0  0  0  0  0  0  0  0  0  0  0  0
    3.1030   -1.9260   -1.1000 N   0  0  0  0  0  0  0  0  0  0  0  0
    1.0900   -2.1970   -0.5100 C   0  0  0  0  0  0  0  0  0  0  0  0
    2.0810   -2.8290   -1.0470 N   0  0  0  0  0  0  0  0  0  0  0  0
    3.3590    0.4430   -0.4320 C   0  0  0  0  0  0  0  0  0  0  0  0
    2.7480    1.5380    0.2010 C   0  0  0  0  0  0  0  0  0  0  0  0
    3.4210    2.7450    0.3460 C   0  0  0  0  0  0  0  0  0  0  0  0
   -2.8150   -1.5690    0.8310 C   0  0  0  0  0  0  0  0  0  0  0  0
   -0.5060   -2.8000   -0.1780 S   0  0  0  0  0  0  0  0  0  0  0  0
   -5.8640   -1.7560   -1.4080 C   0  0  0  0  0  0  0  0  0  0  0  0
   -3.6530   -1.5720   -0.2050 N   0  0  0  0  0  0  0  0  0  0  0  0
    4.7340    2.8850   -0.1430 C   0  0  0  0  0  0  0  0  0  0  0  0
    4.6720    0.5980   -0.9110 C   0  0  0  0  0  0  0  0  0  0  0  0
   -3.2350   -1.7800    1.9620 O   0  0  0  0  0  0  0  0  0  0  0  0
   -5.2650   -1.4950   -2.4520 O   0  0  0  0  0  0  0  0  0  0  0  0
    5.3530    1.8020   -0.7710 C   0  0  0  0  0  0  0  0  0  0  0  0
   -1.3470   -1.3440    0.5440 C   0  0  0  0  0  0  0  0  0  0  0  0
   -5.0930   -1.8300   -0.0740 C   0  0  0  0  0  0  0  0  0  0  0  0
    2.7020    3.7460    0.9900 O   0  0  0  0  0  0  0  0  0  0  0  0
   -7.1950   -1.9500   -1.4720 O   0  0  0  0  0  0  0  0  0  0  0  0
    5.4160    4.0860   -0.0080 O   0  0  0  0  0  0  0  0  0  0  0  0
   -8.0680   -2.2750   -0.3670 C   0  0  0  0  0  0  0  0  0  0  0  0
    3.1350    5.0890    1.3040 C   0  0  0  0  0  0  0  0  0  0  0  0
    6.7560    4.3620   -0.4760 C   0  0  0  0  0  0  0  0  0  0  0  0
   -8.1140   -3.7780   -0.0960 C   0  0  0  0  0  0  0  0  0  0  0  0
  1  2  1  0  0  0  0
  1  4  1  0  0  0  0
  2  3  2  0  0  0  0
  2  6  1  0  0  0  0
  3  5  1  0  0  0  0
  4  5  2  0  0  0  0
  4 10  1  0  0  0  0
  6  7  1  0  0  0  0
  6 14  2  0  0  0  0
  7  8  2  0  0  0  0
  8 13  1  0  0  0  0
  8 20  1  0  0  0  0
  9 12  1  0  0  0  0
  9 15  2  0  0  0  0
  9 18  1  0  0  0  0
 10 18  1  0  0  0  0
 11 16  2  0  0  0  0
 11 19  1  0  0  0  0
 11 21  1  0  0  0  0
 12 19  1  0  0  0  0
 13 17  2  0  0  0  0
 13 22  1  0  0  0  0
 14 17  1  0  0  0  0
 20 24  1  0  0  0  0
 21 23  1  0  0  0  0
 22 25  1  0  0  0  0
 23 26  1  0  0  0  0
M  END
>  <NScode>
NS-013332846-0000

>  <a_acc>
6

>  <a_don>
1

>  <chiral>
0

>  <opr_nrot>
9

>  <Weight>
381.409

>  <druglike>
1

>  <lip_druglike>
1

>  <lip_violation>
0

>  <logS>
-5.9837599

$$$$
