NS-012840553-0000
  MOE2022           3D

 23 25  0  0  0  0  0  0  0  0999 V2000
    2.4410    4.5120    0.2030 C   0  0  0  0  0  0  0  0  0  0  0  0
    2.3370    3.3570   -0.6640 O   0  0  0  0  0  0  0  0  0  0  0  0
    2.3030    2.0530   -0.2440 C   0  0  0  0  0  0  0  0  0  0  0  0
    2.4000    1.0710   -1.2240 C   0  0  0  0  0  0  0  0  0  0  0  0
    2.3510   -0.2680   -0.8610 C   0  0  0  0  0  0  0  0  0  0  0  0
    2.1940   -0.6360    0.4810 C   0  0  0  0  0  0  0  0  0  0  0  0
    2.1240    0.3650    1.4590 C   0  0  0  0  0  0  0  0  0  0  0  0
    2.1730    1.7070    1.1020 C   0  0  0  0  0  0  0  0  0  0  0  0
    2.0370   -2.0310    0.8370 C   0  0  0  0  0  0  0  0  0  0  0  0
    2.9250   -2.7240    1.5980 N   0  0  0  0  0  0  0  0  0  0  0  0
    2.5400   -4.0100    1.7850 N   0  0  0  0  0  0  0  0  0  0  0  0
    1.4140   -4.1270    1.1380 C   0  0  0  0  0  0  0  0  0  0  0  0
    1.0580   -2.9290    0.5370 C   0  0  0  0  0  0  0  0  0  0  0  0
   -0.1690   -2.6460   -0.2850 C   0  0  0  0  0  0  0  0  0  0  0  0
   -0.7640   -1.3170    0.0620 N   0  3  0  0  0  0  0  0  0  0  0  0
   -1.6210   -0.6540   -0.9640 C   0  0  0  0  0  0  0  0  0  0  0  0
   -2.2400    0.6180   -0.4460 C   0  0  0  0  0  0  0  0  0  0  0  0
   -3.5340    0.6030    0.0790 C   0  0  0  0  0  0  0  0  0  0  0  0
   -4.0990    1.7720    0.5840 C   0  0  0  0  0  0  0  0  0  0  0  0
   -3.3780    2.9600    0.5710 C   0  0  0  0  0  0  0  0  0  0  0  0
   -2.0860    2.9790    0.0480 C   0  0  0  0  0  0  0  0  0  0  0  0
   -1.1830    4.4550    0.0340 Cl  0  0  0  0  0  0  0  0  0  0  0  0
   -1.5160    1.8110   -0.4600 C   0  0  0  0  0  0  0  0  0  0  0  0
  1  2  1  0  0  0  0
  2  3  1  0  0  0  0
  3  4  1  0  0  0  0
  3  8  2  0  0  0  0
  4  5  2  0  0  0  0
  5  6  1  0  0  0  0
  6  7  2  0  0  0  0
  6  9  1  0  0  0  0
  7  8  1  0  0  0  0
  9 10  1  0  0  0  0
  9 13  2  0  0  0  0
 10 11  1  0  0  0  0
 11 12  2  0  0  0  0
 12 13  1  0  0  0  0
 13 14  1  0  0  0  0
 14 15  1  0  0  0  0
 15 16  1  0  0  0  0
 16 17  1  0  0  0  0
 17 18  1  0  0  0  0
 17 23  2  0  0  0  0
 18 19  2  0  0  0  0
 19 20  1  0  0  0  0
 20 21  2  0  0  0  0
 21 22  1  0  0  0  0
 21 23  1  0  0  0  0
M  CHG  1  15   1
M  END
>  <NScode>
NS-012840553-0000

>  <a_acc>
4

>  <a_don>
3

>  <chiral>
0

>  <opr_nrot>
6

>  <Weight>
327.815

>  <druglike>
1

>  <lip_druglike>
1

>  <lip_violation>
0

>  <logS>
-4.5091701

$$$$
