NS-050178946-0000
  MOE2022           3D

 23 24  0  0  0  0  0  0  0  0999 V2000
   -0.3440    5.8380    1.7030 C   0  0  0  0  0  0  0  0  0  0  0  0
    0.0290    4.4390    1.6560 N   0  0  0  0  0  0  0  0  0  0  0  0
   -0.4050    3.5370    2.5920 N   0  0  0  0  0  0  0  0  0  0  0  0
    0.1250    2.4050    2.2280 C   0  0  0  0  0  0  0  0  0  0  0  0
    0.8890    2.5340    1.0640 C   0  0  0  0  0  0  0  0  0  0  0  0
    1.6290    1.4940    0.3870 C   0  0  0  0  0  0  0  0  0  0  0  0
    2.7650    1.6590   -0.0580 O   0  0  0  0  0  0  0  0  0  0  0  0
    1.0810    0.2400    0.2070 N   0  0  0  0  0  0  0  0  0  0  0  0
    2.0120   -0.9070    0.0200 C   0  0  0  0  0  0  0  0  0  0  0  0
    1.4790   -2.2600    0.4470 C   0  0  0  0  0  0  0  0  0  0  0  0
    1.2710   -3.2830   -0.4760 C   0  0  0  0  0  0  0  0  0  0  0  0
    0.7520   -4.4810   -0.0400 C   0  0  0  0  0  0  0  0  0  0  0  0
    0.4470   -4.6370    1.3190 C   0  0  0  0  0  0  0  0  0  0  0  0
   -0.0500   -5.7240    1.7500 O   0  5  0  0  0  0  0  0  0  0  0  0
    0.6920   -3.5920    2.1770 N   0  0  0  0  0  0  0  0  0  0  0  0
    1.1940   -2.4410    1.7430 N   0  0  0  0  0  0  0  0  0  0  0  0
   -0.3890    0.0260    0.0610 C   0  0  0  0  0  0  0  0  0  0  0  0
   -0.9950    0.2900   -1.3490 C   0  0  0  0  0  0  0  0  0  0  0  0
   -0.3630   -0.6220   -2.4120 C   0  0  0  0  0  0  0  0  0  0  0  0
   -2.5010   -0.0150   -1.2950 C   0  0  0  0  0  0  0  0  0  0  0  0
   -0.8220    1.7580   -1.7750 C   0  0  0  0  0  0  0  0  0  0  0  0
    0.8120    3.8550    0.7240 C   0  0  0  0  0  0  0  0  0  0  0  0
    1.4950    4.7380   -0.6030 Cl  0  0  0  0  0  0  0  0  0  0  0  0
  1  2  1  0  0  0  0
  2  3  1  0  0  0  0
  2 22  1  0  0  0  0
  3  4  2  0  0  0  0
  4  5  1  0  0  0  0
  5  6  1  0  0  0  0
  5 22  2  0  0  0  0
  6  7  2  0  0  0  0
  6  8  1  0  0  0  0
  8  9  1  0  0  0  0
  8 17  1  0  0  0  0
  9 10  1  0  0  0  0
 10 11  1  0  0  0  0
 10 16  2  0  0  0  0
 11 12  2  0  0  0  0
 12 13  1  0  0  0  0
 13 14  1  0  0  0  0
 13 15  2  0  0  0  0
 15 16  1  0  0  0  0
 17 18  1  0  0  0  0
 18 19  1  0  0  0  0
 18 20  1  0  0  0  0
 18 21  1  0  0  0  0
 22 23  1  0  0  0  0
M  CHG  1  14  -1
M  END
>  <NScode>
NS-050178946-0000

>  <a_acc>
4

>  <a_don>
1

>  <chiral>
0

>  <opr_nrot>
5

>  <Weight>
337.811

>  <druglike>
1

>  <lip_druglike>
1

>  <lip_violation>
0

>  <logS>
-2.33795

$$$$
