NS-006968114-0000
  MOE2022           3D

 18 18  0  0  0  0  0  0  0  0999 V2000
    4.2850   -2.4530    0.1650 S   0  0  0  0  0  0  0  0  0  0  0  0
    2.0900    6.3450   -0.2240 C   0  0  0  0  0  0  0  0  0  0  0  0
    4.2950    3.6330   -0.2430 C   0  0  0  0  0  0  0  0  0  0  0  0
    4.2790   -0.6490    0.0480 C   0  0  0  0  0  0  0  0  0  0  0  0
    3.5940    4.3990    0.6500 N   0  0  0  0  0  0  0  0  0  0  0  0
    3.5030   -2.8320    1.2840 O   0  0  0  0  0  0  0  0  0  0  0  0
    5.6280   -2.9030    0.1110 O   0  0  0  0  0  0  0  0  0  0  0  0
    4.2770    2.1690   -0.1260 C   0  0  0  0  0  0  0  0  0  0  0  0
    3.5240   -2.9430   -1.1840 N   0  0  0  0  0  0  0  0  0  0  0  0
    4.9220    4.2260   -1.1070 O   0  0  0  0  0  0  0  0  0  0  0  0
    3.4050    5.8810    0.4580 C   0  0  0  0  0  0  0  0  0  0  0  0
    5.3190    0.0270   -0.5970 C   0  0  0  0  0  0  0  0  0  0  0  0
    3.2450    0.1000    0.6170 C   0  0  0  0  0  0  0  0  0  0  0  0
    3.2380    1.4890    0.5280 C   0  0  0  0  0  0  0  0  0  0  0  0
    5.3150    1.4150   -0.6880 C   0  0  0  0  0  0  0  0  0  0  0  0
    1.0070    5.9510    0.4760 F   0  0  0  0  0  0  0  0  0  0  0  0
    2.0190    7.6840   -0.3140 F   0  0  0  0  0  0  0  0  0  0  0  0
    1.9390    5.8610   -1.4670 F   0  0  0  0  0  0  0  0  0  0  0  0
  1  4  1  0  0  0  0
  1  6  2  0  0  0  0
  1  7  2  0  0  0  0
  1  9  1  0  0  0  0
  2 11  1  0  0  0  0
  2 16  1  0  0  0  0
  2 17  1  0  0  0  0
  2 18  1  0  0  0  0
  3  5  1  0  0  0  0
  3  8  1  0  0  0  0
  3 10  2  0  0  0  0
  4 12  1  0  0  0  0
  4 13  2  0  0  0  0
  5 11  1  0  0  0  0
  8 14  2  0  0  0  0
  8 15  1  0  0  0  0
 12 15  2  0  0  0  0
 13 14  1  0  0  0  0
M  END
>  <NScode>
NS-006968114-0000

>  <a_acc>
3

>  <a_don>
2

>  <chiral>
0

>  <opr_nrot>
3

>  <Weight>
282.242

>  <druglike>
1

>  <lip_druglike>
1

>  <lip_violation>
0

>  <logS>
-2.84061

$$$$
