NS-016097132-0000
  MOE2022           3D

 23 24  0  0  0  0  0  0  0  0999 V2000
    6.3300    1.6300    0.5110 N   0  3  0  0  0  0  0  0  0  0  0  0
    4.9740    1.1710    0.3110 C   0  0  0  0  0  0  0  0  0  0  0  0
    4.5190   -0.0070    0.9310 C   0  0  0  0  0  0  0  0  0  0  0  0
    6.5310    2.7730    0.8890 O   0  5  0  0  0  0  0  0  0  0  0  0
   -1.1570   -0.2900   -1.3510 C   0  0  0  0  0  0  0  0  0  0  0  0
    4.1560    1.9510   -0.5140 C   0  0  0  0  0  0  0  0  0  0  0  0
   -4.0530   -0.6770    0.2880 C   0  0  0  0  0  0  0  0  0  0  0  0
    7.2760    0.8960    0.2790 O   0  0  0  0  0  0  0  0  0  0  0  0
   -1.6510   -0.8190   -0.2300 N   0  0  0  0  0  0  0  0  0  0  0  0
    3.2060   -0.4010    0.6840 C   0  0  0  0  0  0  0  0  0  0  0  0
   -2.9110   -1.5510   -0.1810 C   0  0  0  0  0  0  0  0  0  0  0  0
   -4.4970   -0.7000    1.6080 C   0  0  0  0  0  0  0  0  0  0  0  0
   -1.7200   -0.4390   -2.4290 O   0  0  0  0  0  0  0  0  0  0  0  0
    2.3860    0.3660   -0.1450 C   0  0  0  0  0  0  0  0  0  0  0  0
    1.1110   -0.0940   -0.3420 O   0  0  0  0  0  0  0  0  0  0  0  0
    0.1180    0.5180   -1.2250 C   0  0  0  0  0  0  0  0  0  0  0  0
    2.8480    1.5430   -0.7440 C   0  0  0  0  0  0  0  0  0  0  0  0
   -3.8980   -1.5270    2.5030 F   0  0  0  0  0  0  0  0  0  0  0  0
    5.3910   -0.8550    1.8420 C   0  0  0  0  0  0  0  0  0  0  0  0
   -4.6840    0.1920   -0.6020 C   0  0  0  0  0  0  0  0  0  0  0  0
   -5.5410    0.0990    2.0570 C   0  0  0  0  0  0  0  0  0  0  0  0
   -5.7340    1.0030   -0.1700 C   0  0  0  0  0  0  0  0  0  0  0  0
   -6.1640    0.9570    1.1560 C   0  0  0  0  0  0  0  0  0  0  0  0
  1  2  1  0  0  0  0
  1  4  1  0  0  0  0
  1  8  2  0  0  0  0
  2  3  2  0  0  0  0
  2  6  1  0  0  0  0
  3 10  1  0  0  0  0
  3 19  1  0  0  0  0
  5  9  1  0  0  0  0
  5 13  2  0  0  0  0
  5 16  1  0  0  0  0
  6 17  2  0  0  0  0
  7 11  1  0  0  0  0
  7 12  2  0  0  0  0
  7 20  1  0  0  0  0
  9 11  1  0  0  0  0
 10 14  2  0  0  0  0
 12 18  1  0  0  0  0
 12 21  1  0  0  0  0
 14 15  1  0  0  0  0
 14 17  1  0  0  0  0
 15 16  1  0  0  0  0
 20 22  2  0  0  0  0
 21 23  2  0  0  0  0
 22 23  1  0  0  0  0
M  CHG  1   1   1
M  CHG  1   4  -1
M  END
>  <NScode>
NS-016097132-0000

>  <a_acc>
2

>  <a_don>
1

>  <chiral>
0

>  <opr_nrot>
6

>  <Weight>
318.30399

>  <druglike>
1

>  <lip_druglike>
1

>  <lip_violation>
0

>  <logS>
-4.6214099

$$$$
