NS-013156815-0000
  MOE2022           3D

 24 26  0  0  0  0  0  0  0  0999 V2000
   -4.0310    1.8290    0.2410 N   0  0  0  0  0  0  0  0  0  0  0  0
   -2.7920    0.0080   -0.1100 C   0  0  0  0  0  0  0  0  0  0  0  0
   -4.9000    0.7640    0.0620 C   0  0  0  0  0  0  0  0  0  0  0  0
   -4.1580   -0.3550   -0.1570 C   0  0  0  0  0  0  0  0  0  0  0  0
   -2.7300    1.3740    0.1310 C   0  0  0  0  0  0  0  0  0  0  0  0
    4.4610   -0.0860   -0.1330 C   0  0  0  0  0  0  0  0  0  0  0  0
    0.8680   -0.8400   -0.2890 C   0  0  0  0  0  0  0  0  0  0  0  0
    2.0490   -0.2970    0.1830 N   0  0  0  0  0  0  0  0  0  0  0  0
   -1.5980   -0.7150   -0.2520 C   0  0  0  0  0  0  0  0  0  0  0  0
    3.3360   -0.8870    0.1610 C   0  0  0  0  0  0  0  0  0  0  0  0
    4.3420    1.3120   -0.5380 C   0  0  0  0  0  0  0  0  0  0  0  0
   -0.3670   -0.0620   -0.1520 C   0  0  0  0  0  0  0  0  0  0  0  0
   -1.5140    2.0680    0.2220 C   0  0  0  0  0  0  0  0  0  0  0  0
    0.9150   -1.9430   -0.8170 O   0  0  0  0  0  0  0  0  0  0  0  0
   -0.3430    1.3490    0.0780 C   0  0  0  0  0  0  0  0  0  0  0  0
    5.0420    2.2150   -0.1180 O   0  0  0  0  0  0  0  0  0  0  0  0
    3.4280    1.6960   -1.4570 N   0  0  0  0  0  0  0  0  0  0  0  0
   -4.4090    3.2160    0.4630 C   0  0  0  0  0  0  0  0  0  0  0  0
   -6.4060    0.9290    0.1230 C   0  0  0  0  0  0  0  0  0  0  0  0
   -4.6850   -1.7530   -0.3900 C   0  0  0  0  0  0  0  0  0  0  0  0
    5.7330   -0.6670   -0.0350 C   0  0  0  0  0  0  0  0  0  0  0  0
    3.4880   -2.2370    0.4940 C   0  0  0  0  0  0  0  0  0  0  0  0
    5.8820   -2.0080    0.3020 C   0  0  0  0  0  0  0  0  0  0  0  0
    4.7590   -2.7930    0.5590 C   0  0  0  0  0  0  0  0  0  0  0  0
  1  3  1  0  0  0  0
  1  5  1  0  0  0  0
  1 18  1  0  0  0  0
  2  4  1  0  0  0  0
  2  5  1  0  0  0  0
  2  9  2  0  0  0  0
  3  4  2  0  0  0  0
  3 19  1  0  0  0  0
  4 20  1  0  0  0  0
  5 13  2  0  0  0  0
  6 10  2  0  0  0  0
  6 11  1  0  0  0  0
  6 21  1  0  0  0  0
  7  8  1  0  0  0  0
  7 12  1  0  0  0  0
  7 14  2  0  0  0  0
  8 10  1  0  0  0  0
  9 12  1  0  0  0  0
 10 22  1  0  0  0  0
 11 16  2  0  0  0  0
 11 17  1  0  0  0  0
 12 15  2  0  0  0  0
 13 15  1  0  0  0  0
 21 23  2  0  0  0  0
 22 24  2  0  0  0  0
 23 24  1  0  0  0  0
M  END
>  <NScode>
NS-013156815-0000

>  <a_acc>
2

>  <a_don>
2

>  <chiral>
0

>  <opr_nrot>
3

>  <Weight>
321.38

>  <druglike>
1

>  <lip_druglike>
1

>  <lip_violation>
0

>  <logS>
-4.26476

$$$$
