NS-020248164-0000
  MOE2022           3D

 20 22  0  0  1  0  0  0  0  0999 V2000
   -3.4120    0.2760    0.7060 C   0  0  0  0  0  0  0  0  0  0  0  0
   -2.0200    0.1390    1.0730 O   0  0  0  0  0  0  0  0  0  0  0  0
   -0.9590    0.5430    0.2920 C   0  0  0  0  0  0  0  0  0  0  0  0
   -1.1400    1.1500   -0.9500 C   0  0  0  0  0  0  0  0  0  0  0  0
   -0.0250    1.5320   -1.6860 C   0  0  0  0  0  0  0  0  0  0  0  0
    1.2570    1.3130   -1.1840 C   0  0  0  0  0  0  0  0  0  0  0  0
    1.4410    0.7080    0.0660 C   0  0  0  0  0  0  0  0  0  0  0  0
    0.3170    0.3200    0.7980 C   0  0  0  0  0  0  0  0  0  0  0  0
    2.8230    0.4700    0.6690 C   0  0  3  0  0  0  0  0  0  0  0  0
    3.0920    1.4140    1.8480 C   0  0  0  0  0  0  0  0  0  0  0  0
    3.8570    2.5810    1.2520 C   0  0  3  0  0  0  0  0  0  0  0  0
    2.9220    3.5240    0.7720 O   0  0  0  0  0  0  0  0  0  0  0  0
    4.6330    1.9430    0.0980 C   0  0  0  0  0  0  0  0  0  0  0  0
    3.9000    0.7320   -0.2790 N   0  0  0  0  0  0  0  0  0  0  0  0
    4.6360   -0.5030   -1.0780 S   0  0  0  0  0  0  0  0  0  0  0  0
    3.6560   -1.4550   -1.4690 O   0  0  0  0  0  0  0  0  0  0  0  0
    5.4610    0.0420   -2.0980 O   0  0  0  0  0  0  0  0  0  0  0  0
    5.7060   -1.2630    0.1550 C   0  0  0  0  0  0  0  0  0  0  0  0
    6.0940   -2.7210    0.1850 C   0  0  0  0  0  0  0  0  0  0  0  0
    5.2500   -2.1510    1.2880 C   0  0  0  0  0  0  0  0  0  0  0  0
  1  2  1  0  0  0  0
  2  3  1  0  0  0  0
  3  4  1  0  0  0  0
  3  8  2  0  0  0  0
  4  5  2  0  0  0  0
  5  6  1  0  0  0  0
  6  7  2  0  0  0  0
  7  8  1  0  0  0  0
  7  9  1  0  0  0  0
  9 10  1  0  0  0  0
  9 14  1  0  0  0  0
 10 11  1  0  0  0  0
 11 12  1  0  0  0  0
 11 13  1  0  0  0  0
 13 14  1  0  0  0  0
 14 15  1  0  0  0  0
 15 16  2  0  0  0  0
 15 17  2  0  0  0  0
 15 18  1  0  0  0  0
 18 19  1  0  0  0  0
 18 20  1  0  0  0  0
 19 20  1  0  0  0  0
M  END
>  <NScode>
NS-020248164-0000

>  <a_acc>
4

>  <a_don>
1

>  <chiral>
2

>  <opr_nrot>
4

>  <Weight>
297.375

>  <druglike>
1

>  <lip_druglike>
1

>  <lip_violation>
0

>  <logS>
-1.99331

$$$$
