NS-020426870-0000
  MOE2022           3D

 33 36  0  0  1  0  0  0  0  0999 V2000
    7.9910   -6.6090   -0.0630 S   0  0  0  0  0  0  0  0  0  0  0  0
    0.4180    0.8350    1.1050 C   0  0  0  0  0  0  0  0  0  0  0  0
    7.4380   -5.0760    0.2240 N   0  0  0  0  0  0  0  0  0  0  0  0
    0.0720    0.0510   -1.8040 N   0  0  0  0  0  0  0  0  0  0  0  0
    1.6900    0.5330    0.7530 N   0  0  0  0  0  0  0  0  0  0  0  0
   -0.5500    1.4320    0.1820 C   0  0  0  0  0  0  0  0  0  0  0  0
    1.3880   -0.2220   -1.6010 C   0  0  0  0  0  0  0  0  0  0  0  0
   -0.6970    1.0540   -1.1750 C   0  0  0  0  0  0  0  0  0  0  0  0
    6.2560   -2.3720    0.1360 N   0  0  0  0  0  0  0  0  0  0  0  0
    2.1990    0.6270   -0.6120 C   0  0  2  0  0  0  0  0  0  0  0  0
    5.7210   -1.1850   -0.2110 C   0  0  0  0  0  0  0  0  0  0  0  0
    9.7060   -6.6010    0.5020 C   0  0  0  0  0  0  0  0  0  0  0  0
    7.9730   -6.8360   -1.4670 O   0  0  0  0  0  0  0  0  0  0  0  0
    7.2500   -7.5180    0.7410 O   0  0  0  0  0  0  0  0  0  0  0  0
    8.1350   -3.9560   -0.4400 C   0  0  0  0  0  0  0  0  0  0  0  0
    5.9780   -4.8830    0.1400 C   0  0  0  0  0  0  0  0  0  0  0  0
    7.7220   -2.5740    0.1100 C   0  0  0  0  0  0  0  0  0  0  0  0
    5.5080   -3.5220    0.6990 C   0  0  0  0  0  0  0  0  0  0  0  0
    0.1760    0.6080    2.2790 O   0  0  0  0  0  0  0  0  0  0  0  0
    1.8240   -1.1610   -2.2340 O   0  0  0  0  0  0  0  0  0  0  0  0
    4.2010   -0.9900   -0.1370 C   0  0  0  0  0  0  0  0  0  0  0  0
    6.4300   -0.2540   -0.5810 O   0  0  0  0  0  0  0  0  0  0  0  0
    3.7240    0.3910   -0.6460 C   0  0  0  0  0  0  0  0  0  0  0  0
   10.0030   -6.6990    1.8670 C   0  0  0  0  0  0  0  0  0  0  0  0
   10.7630   -6.5200   -0.4130 C   0  0  0  0  0  0  0  0  0  0  0  0
   12.3650   -6.6100    1.3880 C   0  0  0  0  0  0  0  0  0  0  0  0
   11.3220   -6.7010    2.3100 C   0  0  0  0  0  0  0  0  0  0  0  0
   12.0840   -6.5210    0.0250 C   0  0  0  0  0  0  0  0  0  0  0  0
   14.0070   -6.6060    1.9360 Cl  0  0  0  0  0  0  0  0  0  0  0  0
   -1.4120    2.4220    0.6800 C   0  0  0  0  0  0  0  0  0  0  0  0
   -1.6690    1.6470   -1.9840 C   0  0  0  0  0  0  0  0  0  0  0  0
   -2.3720    3.0170   -0.1300 C   0  0  0  0  0  0  0  0  0  0  0  0
   -2.5000    2.6290   -1.4620 C   0  0  0  0  0  0  0  0  0  0  0  0
  1  3  1  0  0  0  0
  1 12  1  0  0  0  0
  1 13  2  0  0  0  0
  1 14  2  0  0  0  0
  2  5  1  0  0  0  0
  2  6  1  0  0  0  0
  2 19  2  0  0  0  0
  3 15  1  0  0  0  0
  3 16  1  0  0  0  0
  4  7  1  0  0  0  0
  4  8  1  0  0  0  0
  5 10  1  0  0  0  0
  6  8  1  0  0  0  0
  6 30  2  0  0  0  0
  7 10  1  0  0  0  0
  7 20  2  0  0  0  0
  8 31  2  0  0  0  0
  9 11  1  0  0  0  0
  9 17  1  0  0  0  0
  9 18  1  0  0  0  0
 10 23  1  0  0  0  0
 11 21  1  0  0  0  0
 11 22  2  0  0  0  0
 12 24  2  0  0  0  0
 12 25  1  0  0  0  0
 15 17  1  0  0  0  0
 16 18  1  0  0  0  0
 21 23  1  0  0  0  0
 24 27  1  0  0  0  0
 25 28  2  0  0  0  0
 26 27  2  0  0  0  0
 26 28  1  0  0  0  0
 26 29  1  0  0  0  0
 30 32  1  0  0  0  0
 31 33  1  0  0  0  0
 32 33  2  0  0  0  0
M  END
>  <NScode>
NS-020426870-0000

>  <a_acc>
5

>  <a_don>
2

>  <chiral>
1

>  <opr_nrot>
6

>  <Weight>
490.96799

>  <druglike>
1

>  <lip_druglike>
1

>  <lip_violation>
0

>  <logS>
-4.62324

$$$$
