NS-022618650-0000
  MOE2022           3D

 29 32  0  0  0  0  0  0  0  0999 V2000
    4.5350    0.6450    0.5320 N   0  0  0  0  0  0  0  0  0  0  0  0
    5.0530   -0.2100   -0.4530 C   0  0  0  0  0  0  0  0  0  0  0  0
    3.1810    0.5370    0.8880 C   0  0  0  0  0  0  0  0  0  0  0  0
   -2.2510   -2.0870    0.2700 C   0  0  0  0  0  0  0  0  0  0  0  0
   -0.9080   -1.7780   -0.7460 S   0  0  0  0  0  0  0  0  0  0  0  0
    4.2830   -1.1050   -1.0480 N   0  0  0  0  0  0  0  0  0  0  0  0
    2.4100   -0.4420    0.2160 C   0  0  0  0  0  0  0  0  0  0  0  0
   -3.4520   -1.3580    0.2710 N   0  0  0  0  0  0  0  0  0  0  0  0
   -0.1370   -3.0890    0.0410 C   0  0  0  0  0  0  0  0  0  0  0  0
   -3.8010   -0.2650   -0.4810 C   0  0  0  0  0  0  0  0  0  0  0  0
   -2.1110   -3.0760    1.0920 N   0  0  0  0  0  0  0  0  0  0  0  0
   -0.8680   -3.6670    0.9570 N   0  0  0  0  0  0  0  0  0  0  0  0
    2.9720   -1.2400   -0.7330 C   0  0  0  0  0  0  0  0  0  0  0  0
    5.3590    1.6000    1.1580 C   0  0  0  0  0  0  0  0  0  0  0  0
    6.4370   -0.0670   -0.7800 C   0  0  0  0  0  0  0  0  0  0  0  0
   -5.1270    0.3090   -0.2310 C   0  0  0  0  0  0  0  0  0  0  0  0
    6.6770    1.7120    0.8210 C   0  0  0  0  0  0  0  0  0  0  0  0
    7.2290    0.8580   -0.1700 C   0  0  0  0  0  0  0  0  0  0  0  0
    1.4900   -3.5920   -0.3680 S   0  0  0  0  0  0  0  0  0  0  0  0
    2.7350    1.2980    1.7600 O   0  0  0  0  0  0  0  0  0  0  0  0
   -3.0120    0.1680   -1.3090 O   0  0  0  0  0  0  0  0  0  0  0  0
   -6.0310    0.5760   -1.2790 C   0  0  0  0  0  0  0  0  0  0  0  0
    2.1800   -2.3040   -1.4700 C   0  0  0  0  0  0  0  0  0  0  0  0
   -5.5150    0.5910    1.0890 C   0  0  0  0  0  0  0  0  0  0  0  0
    7.5680    2.7340    1.4900 C   0  0  0  0  0  0  0  0  0  0  0  0
   -5.6690    0.3050   -2.7290 C   0  0  0  0  0  0  0  0  0  0  0  0
   -7.2880    1.1020   -0.9890 C   0  0  0  0  0  0  0  0  0  0  0  0
   -6.7720    1.1130    1.3640 C   0  0  0  0  0  0  0  0  0  0  0  0
   -7.6600    1.3670    0.3250 C   0  0  0  0  0  0  0  0  0  0  0  0
  1  2  1  0  0  0  0
  1  3  1  0  0  0  0
  1 14  1  0  0  0  0
  2  6  2  0  0  0  0
  2 15  1  0  0  0  0
  3  7  1  0  0  0  0
  3 20  2  0  0  0  0
  4  5  1  0  0  0  0
  4  8  1  0  0  0  0
  4 11  2  0  0  0  0
  5  9  1  0  0  0  0
  6 13  1  0  0  0  0
  7 13  2  0  0  0  0
  8 10  1  0  0  0  0
  9 12  2  0  0  0  0
  9 19  1  0  0  0  0
 10 16  1  0  0  0  0
 10 21  2  0  0  0  0
 11 12  1  0  0  0  0
 13 23  1  0  0  0  0
 14 17  2  0  0  0  0
 15 18  2  0  0  0  0
 16 22  2  0  0  0  0
 16 24  1  0  0  0  0
 17 18  1  0  0  0  0
 17 25  1  0  0  0  0
 19 23  1  0  0  0  0
 22 26  1  0  0  0  0
 22 27  1  0  0  0  0
 24 28  2  0  0  0  0
 27 29  2  0  0  0  0
 28 29  1  0  0  0  0
M  END
>  <NScode>
NS-022618650-0000

>  <a_acc>
5

>  <a_don>
1

>  <chiral>
0

>  <opr_nrot>
5

>  <Weight>
423.521

>  <druglike>
1

>  <lip_druglike>
1

>  <lip_violation>
0

>  <logS>
-7.6031899

$$$$
