NS-016048613-0000
  MOE2022           3D

 24 27  0  0  1  0  0  0  0  0999 V2000
    1.4990   -1.6090   -0.3380 C   0  0  0  0  0  0  0  0  0  0  0  0
   -0.7540   -0.5010   -0.1830 N   0  0  0  0  0  0  0  0  0  0  0  0
    2.2550   -2.4040    0.3620 N   0  0  0  0  0  0  0  0  0  0  0  0
    2.2220   -0.5900   -0.8810 N   0  0  0  0  0  0  0  0  0  0  0  0
   -0.7120    0.6980   -0.8650 C   0  0  0  0  0  0  0  0  0  0  0  0
   -0.0020   -1.6890   -0.6060 C   0  0  3  0  0  0  0  0  0  0  0  0
    3.5290   -1.8780    0.2720 C   0  0  0  0  0  0  0  0  0  0  0  0
    3.5170   -0.7390   -0.5060 C   0  0  0  0  0  0  0  0  0  0  0  0
   -1.4950    1.8470   -0.4030 C   0  0  0  0  0  0  0  0  0  0  0  0
   -0.0030    0.7490   -1.8680 O   0  0  0  0  0  0  0  0  0  0  0  0
   -2.2000    2.6320   -1.3300 C   0  0  0  0  0  0  0  0  0  0  0  0
   -1.5460    2.1950    0.9570 C   0  0  0  0  0  0  0  0  0  0  0  0
   -1.8830   -0.9170    0.6500 C   0  0  0  0  0  0  0  0  0  0  0  0
   -3.0080    4.0350    0.4490 C   0  0  0  0  0  0  0  0  0  0  0  0
   -2.3020    3.2800    1.3820 C   0  0  0  0  0  0  0  0  0  0  0  0
   -2.9570    3.7190   -0.9110 C   0  0  0  0  0  0  0  0  0  0  0  0
   -0.6950   -2.8620    0.1000 C   0  0  0  0  0  0  0  0  0  0  0  0
   -3.7410    5.0900    0.9260 O   0  0  0  0  0  0  0  0  0  0  0  0
   -2.1210   -2.4070    0.4050 C   0  0  0  0  0  0  0  0  0  0  0  0
    4.7420   -2.3110    0.8220 C   0  0  0  0  0  0  0  0  0  0  0  0
    4.6640    0.0180   -0.7770 C   0  0  0  0  0  0  0  0  0  0  0  0
   -4.5330    5.9850    0.1110 C   0  0  0  0  0  0  0  0  0  0  0  0
    5.8590   -0.4170   -0.2280 C   0  0  0  0  0  0  0  0  0  0  0  0
    5.8990   -1.5830    0.5720 C   0  0  0  0  0  0  0  0  0  0  0  0
  1  3  2  0  0  0  0
  1  4  1  0  0  0  0
  1  6  1  0  0  0  0
  2  5  1  0  0  0  0
  2  6  1  0  0  0  0
  2 13  1  0  0  0  0
  3  7  1  0  0  0  0
  4  8  1  0  0  0  0
  5  9  1  0  0  0  0
  5 10  2  0  0  0  0
  6 17  1  0  0  0  0
  7  8  2  0  0  0  0
  7 20  1  0  0  0  0
  8 21  1  0  0  0  0
  9 11  1  0  0  0  0
  9 12  2  0  0  0  0
 11 16  2  0  0  0  0
 12 15  1  0  0  0  0
 13 19  1  0  0  0  0
 14 15  2  0  0  0  0
 14 16  1  0  0  0  0
 14 18  1  0  0  0  0
 17 19  1  0  0  0  0
 18 22  1  0  0  0  0
 20 24  2  0  0  0  0
 21 23  2  0  0  0  0
 23 24  1  0  0  0  0
M  END
>  <NScode>
NS-016048613-0000

>  <a_acc>
4

>  <a_don>
2

>  <chiral>
1

>  <opr_nrot>
4

>  <Weight>
321.38

>  <druglike>
1

>  <lip_druglike>
1

>  <lip_violation>
0

>  <logS>
-4.0472002

$$$$
