NS-015016549-0000
  MOE2022           3D

 23 24  0  0  0  0  0  0  0  0999 V2000
    2.6040    1.1350    0.3900 S   0  0  0  0  0  0  0  0  0  0  0  0
    0.9210    1.1650    0.0740 C   0  0  0  0  0  0  0  0  0  0  0  0
    2.5090    2.8420    0.4540 C   0  0  0  0  0  0  0  0  0  0  0  0
    0.3930    2.3570    0.0300 N   0  0  0  0  0  0  0  0  0  0  0  0
    1.3340    3.3480    0.2570 N   0  0  0  0  0  0  0  0  0  0  0  0
   -2.8510   -1.6820    0.3320 N   0  0  0  0  0  0  0  0  0  0  0  0
   -3.7380   -2.8030    0.4030 C   0  0  0  0  0  0  0  0  0  0  0  0
   -3.3810   -3.8710    1.2480 C   0  0  0  0  0  0  0  0  0  0  0  0
   -2.6680   -0.8060   -0.7050 C   0  0  0  0  0  0  0  0  0  0  0  0
   -4.2150   -4.9810    1.3550 C   0  0  0  0  0  0  0  0  0  0  0  0
    0.0460   -0.3310   -0.1560 S   0  0  0  0  0  0  0  0  0  0  0  0
   -3.2770   -0.9330   -1.7470 O   0  0  0  0  0  0  0  0  0  0  0  0
    3.6220    3.6450    0.7070 N   0  0  0  0  0  0  0  0  0  0  0  0
   -4.9400   -2.8470   -0.3100 C   0  0  0  0  0  0  0  0  0  0  0  0
   -5.4060   -5.0240    0.6310 C   0  0  0  0  0  0  0  0  0  0  0  0
   -1.6450    0.2880   -0.4960 C   0  0  0  0  0  0  0  0  0  0  0  0
   -1.9100   -3.8210    2.1680 Cl  0  0  0  0  0  0  0  0  0  0  0  0
   -5.7700   -3.9600   -0.1980 C   0  0  0  0  0  0  0  0  0  0  0  0
   -6.4430   -6.4010    0.7630 Cl  0  0  0  0  0  0  0  0  0  0  0  0
    4.9220    3.1780    0.2470 C   0  0  0  0  0  0  0  0  0  0  0  0
    5.9950    4.2470    0.4470 C   0  0  0  0  0  0  0  0  0  0  0  0
    7.3720    3.7520   -0.0190 C   0  0  0  0  0  0  0  0  0  0  0  0
    8.4280    4.8460    0.1690 C   0  0  0  0  0  0  0  0  0  0  0  0
  1  2  1  0  0  0  0
  1  3  1  0  0  0  0
  2  4  2  0  0  0  0
  2 11  1  0  0  0  0
  3  5  2  0  0  0  0
  3 13  1  0  0  0  0
  4  5  1  0  0  0  0
  6  7  1  0  0  0  0
  6  9  1  0  0  0  0
  7  8  2  0  0  0  0
  7 14  1  0  0  0  0
  8 10  1  0  0  0  0
  8 17  1  0  0  0  0
  9 12  2  0  0  0  0
  9 16  1  0  0  0  0
 10 15  2  0  0  0  0
 11 16  1  0  0  0  0
 13 20  1  0  0  0  0
 14 18  2  0  0  0  0
 15 18  1  0  0  0  0
 15 19  1  0  0  0  0
 20 21  1  0  0  0  0
 21 22  1  0  0  0  0
 22 23  1  0  0  0  0
M  END
>  <NScode>
NS-015016549-0000

>  <a_acc>
3

>  <a_don>
2

>  <chiral>
0

>  <opr_nrot>
8

>  <Weight>
391.34698

>  <druglike>
1

>  <lip_druglike>
1

>  <lip_violation>
0

>  <logS>
-7.2519002

$$$$
