NS-018364247-0000
  MOE2022           3D

 20 21  0  0  0  0  0  0  0  0999 V2000
   -1.6000   -1.4910    0.2110 N   0  0  0  0  0  0  0  0  0  0  0  0
   -2.7280   -2.1690    0.6440 C   0  0  0  0  0  0  0  0  0  0  0  0
   -1.4110   -0.0810    0.1620 C   0  0  0  0  0  0  0  0  0  0  0  0
    2.5540    1.8330   -0.0780 C   0  0  0  0  0  0  0  0  0  0  0  0
   -2.5560   -3.5010    0.4800 N   0  0  0  0  0  0  0  0  0  0  0  0
   -0.1160    0.4320    0.2760 C   0  0  0  0  0  0  0  0  0  0  0  0
    1.3650    2.3950    0.2890 N   0  0  0  0  0  0  0  0  0  0  0  0
   -3.7550   -1.6930    1.1030 O   0  0  0  0  0  0  0  0  0  0  0  0
    0.0800    1.8110    0.1850 C   0  0  0  0  0  0  0  0  0  0  0  0
    2.6700    0.7340   -0.6050 O   0  0  0  0  0  0  0  0  0  0  0  0
    3.6170    2.6300    0.1890 N   0  0  0  0  0  0  0  0  0  0  0  0
   -0.6100   -2.4520   -0.2600 C   0  0  0  0  0  0  0  0  0  0  0  0
   -1.3200   -3.8000   -0.2090 C   0  0  0  0  0  0  0  0  0  0  0  0
   -2.4990    0.7800   -0.0230 C   0  0  0  0  0  0  0  0  0  0  0  0
   -2.2890    2.1550   -0.0950 C   0  0  0  0  0  0  0  0  0  0  0  0
   -1.0020    2.6760    0.0080 C   0  0  0  0  0  0  0  0  0  0  0  0
    4.9780    2.1730   -0.0550 C   0  0  0  0  0  0  0  0  0  0  0  0
    5.9830    3.3240    0.0020 C   0  0  0  0  0  0  0  0  0  0  0  0
    7.4080    2.8220   -0.2710 C   0  0  0  0  0  0  0  0  0  0  0  0
    8.4090    3.9800   -0.2050 C   0  0  0  0  0  0  0  0  0  0  0  0
  1  2  1  0  0  0  0
  1  3  1  0  0  0  0
  1 12  1  0  0  0  0
  2  5  1  0  0  0  0
  2  8  2  0  0  0  0
  3  6  2  0  0  0  0
  3 14  1  0  0  0  0
  4  7  1  0  0  0  0
  4 10  2  0  0  0  0
  4 11  1  0  0  0  0
  5 13  1  0  0  0  0
  6  9  1  0  0  0  0
  7  9  1  0  0  0  0
  9 16  2  0  0  0  0
 11 17  1  0  0  0  0
 12 13  1  0  0  0  0
 14 15  2  0  0  0  0
 15 16  1  0  0  0  0
 17 18  1  0  0  0  0
 18 19  1  0  0  0  0
 19 20  1  0  0  0  0
M  END
>  <NScode>
NS-018364247-0000

>  <a_acc>
2

>  <a_don>
3

>  <chiral>
0

>  <opr_nrot>
5

>  <Weight>
276.34

>  <druglike>
1

>  <lip_druglike>
1

>  <lip_violation>
0

>  <logS>
-2.5585499

$$$$
