NS-013923778-0000
  MOE2022           3D

 27 29  0  0  1  0  0  0  0  0999 V2000
   -3.4730    0.5390    0.3280 N   0  0  0  0  0  0  0  0  0  0  0  0
   -3.8890   -0.8790    0.3510 C   0  0  3  0  0  0  0  0  0  0  0  0
   -4.5690    1.3160   -0.1350 C   0  0  0  0  0  0  0  0  0  0  0  0
   -2.1740    0.9810    0.5420 C   0  0  0  0  0  0  0  0  0  0  0  0
    2.8860    0.6620    0.1330 C   0  0  0  0  0  0  0  0  0  0  0  0
   -5.5570    0.4900   -0.6420 C   0  0  0  0  0  0  0  0  0  0  0  0
   -5.1460   -0.9480   -0.5390 C   0  0  0  0  0  0  0  0  0  0  0  0
    2.3070    0.8390   -1.0920 N   0  0  0  0  0  0  0  0  0  0  0  0
    4.3250    0.3870    0.2300 C   0  0  0  0  0  0  0  0  0  0  0  0
    0.1160   -0.4470   -1.2450 C   0  0  0  0  0  0  0  0  0  0  0  0
   -1.0800   -0.0100    0.9090 C   0  0  0  0  0  0  0  0  0  0  0  0
   -1.8900    2.1470    0.3490 O   0  0  0  0  0  0  0  0  0  0  0  0
    2.1560    0.7560    1.1100 O   0  0  0  0  0  0  0  0  0  0  0  0
    5.0080    0.6860    1.4150 C   0  0  0  0  0  0  0  0  0  0  0  0
   -0.6630   -0.8450   -0.2170 O   0  0  0  0  0  0  0  0  0  0  0  0
    0.2610   -1.2580   -2.1570 O   0  0  0  0  0  0  0  0  0  0  0  0
    0.8320    0.9060   -1.2680 C   0  0  0  0  0  0  0  0  0  0  0  0
    6.3750    0.4390    1.5240 C   0  0  0  0  0  0  0  0  0  0  0  0
    7.2070    0.8210    2.9940 Cl  0  0  0  0  0  0  0  0  0  0  0  0
   -4.1990   -1.3480    1.7830 C   0  0  0  0  0  0  0  0  0  0  0  0
   -4.7290    2.7020   -0.1130 C   0  0  0  0  0  0  0  0  0  0  0  0
   -6.7300    1.0300   -1.1530 C   0  0  0  0  0  0  0  0  0  0  0  0
    5.0410   -0.1800   -0.8400 C   0  0  0  0  0  0  0  0  0  0  0  0
    6.4070   -0.4250   -0.7260 C   0  0  0  0  0  0  0  0  0  0  0  0
    7.0760   -0.1150    0.4530 C   0  0  0  0  0  0  0  0  0  0  0  0
   -5.9050    3.2470   -0.6240 C   0  0  0  0  0  0  0  0  0  0  0  0
   -6.9020    2.4150   -1.1440 C   0  0  0  0  0  0  0  0  0  0  0  0
  1  2  1  0  0  0  0
  1  3  1  0  0  0  0
  1  4  1  0  0  0  0
  2  7  1  0  0  0  0
  2 20  1  0  0  0  0
  3  6  2  0  0  0  0
  3 21  1  0  0  0  0
  4 11  1  0  0  0  0
  4 12  2  0  0  0  0
  5  8  1  0  0  0  0
  5  9  1  0  0  0  0
  5 13  2  0  0  0  0
  6  7  1  0  0  0  0
  6 22  1  0  0  0  0
  8 17  1  0  0  0  0
  9 14  2  0  0  0  0
  9 23  1  0  0  0  0
 10 15  1  0  0  0  0
 10 16  2  0  0  0  0
 10 17  1  0  0  0  0
 11 15  1  0  0  0  0
 14 18  1  0  0  0  0
 18 19  1  0  0  0  0
 18 25  2  0  0  0  0
 21 26  2  0  0  0  0
 22 27  2  0  0  0  0
 23 24  2  0  0  0  0
 24 25  1  0  0  0  0
 26 27  1  0  0  0  0
M  END
>  <NScode>
NS-013923778-0000

>  <a_acc>
3

>  <a_don>
1

>  <chiral>
1

>  <opr_nrot>
5

>  <Weight>
386.83499

>  <druglike>
1

>  <lip_druglike>
1

>  <lip_violation>
0

>  <logS>
-5.0749898

$$$$
