NS-042338362-0000C17H25BFNO3
  MOE2022           3D

 23 24  0  0  0  0  0  0  0  0999 V2000
    0.4360    0.6910    0.0040 O   0  0  0  0  0  0  0  0  0  0  0  0
    0.4170   -0.5230   -0.1560 C   0  0  0  0  0  0  0  0  0  0  0  0
   -0.6420   -1.1710   -1.0660 C   0  0  0  0  0  0  0  0  0  0  0  0
   -1.5950   -2.1000   -0.2920 C   0  0  0  0  0  0  0  0  0  0  0  0
    1.2900   -1.3260    0.4500 N   0  0  0  0  0  0  0  0  0  0  0  0
    2.3270   -0.8420    1.3490 C   0  0  0  0  0  0  0  0  0  0  0  0
    3.6430   -1.5380    1.0940 C   0  0  0  0  0  0  0  0  0  0  0  0
    4.5290   -1.0510    0.1380 C   0  0  0  0  0  0  0  0  0  0  0  0
    5.7330   -1.7090   -0.1050 C   0  0  0  0  0  0  0  0  0  0  0  0
    6.1130   -2.8780    0.5780 C   0  0  0  0  0  0  0  0  0  0  0  0
    7.4680   -3.6160    0.2790 B   0  0  0  0  0  0  0  0  0  0  0  0
    8.3640   -3.2080   -0.6080 O   0  0  0  0  0  0  0  0  0  0  0  0
    9.4810   -4.0800   -0.6740 C   0  0  0  0  0  0  0  0  0  0  0  0
   10.7320   -3.2370   -0.3830 C   0  0  0  0  0  0  0  0  0  0  0  0
    9.5880   -4.5670   -2.1270 C   0  0  0  0  0  0  0  0  0  0  0  0
    9.1200   -5.1750    0.3980 C   0  0  0  0  0  0  0  0  0  0  0  0
   10.0580   -5.2670    1.6110 C   0  0  0  0  0  0  0  0  0  0  0  0
    8.9250   -6.6030   -0.1350 C   0  0  0  0  0  0  0  0  0  0  0  0
    7.8600   -4.7320    0.8750 O   0  0  0  0  0  0  0  0  0  0  0  0
    5.2030   -3.3520    1.5380 C   0  0  0  0  0  0  0  0  0  0  0  0
    4.0060   -2.6920    1.7760 C   0  0  0  0  0  0  0  0  0  0  0  0
    3.1660   -3.2100    2.7090 F   0  0  0  0  0  0  0  0  0  0  0  0
   -0.0220   -1.9380   -2.2480 C   0  0  0  0  0  0  0  0  0  0  0  0
  1  2  2  0  0  0  0
  2  3  1  0  0  0  0
  2  5  1  0  0  0  0
  3  4  1  0  0  0  0
  3 23  1  0  0  0  0
  5  6  1  0  0  0  0
  6  7  1  0  0  0  0
  7  8  1  0  0  0  0
  7 21  2  0  0  0  0
  8  9  2  0  0  0  0
  9 10  1  0  0  0  0
 10 11  1  0  0  0  0
 10 20  2  0  0  0  0
 11 12  1  0  0  0  0
 11 19  1  0  0  0  0
 12 13  1  0  0  0  0
 13 14  1  0  0  0  0
 13 15  1  0  0  0  0
 13 16  1  0  0  0  0
 16 17  1  0  0  0  0
 16 18  1  0  0  0  0
 16 19  1  0  0  0  0
 20 21  1  0  0  0  0
 21 22  1  0  0  0  0
M  END
>  <NScode>
NS-042338362-0000

>  <a_acc>
3

>  <a_don>
1

>  <chiral>
0

>  <opr_nrot>
5

>  <Weight>
321.19998

>  <druglike>
0

>  <lip_druglike>
1

>  <lip_violation>
0

>  <logS>
-3.9909101

$$$$
