NS-000679579-0000
  MOE2022           3D

 15 16  0  0  0  0  0  0  0  0999 V2000
    6.8430    0.9870    0.0500 C   0  0  0  0  0  0  0  0  0  0  0  0
    6.8140   -0.4380   -0.0070 C   0  0  0  0  0  0  0  0  0  0  0  0
    5.6110    1.7120    0.0780 C   0  0  0  0  0  0  0  0  0  0  0  0
    8.0650   -1.1390    0.0020 C   0  0  0  0  0  0  0  0  0  0  0  0
    8.1860   -2.6000    0.0140 C   0  0  0  0  0  0  0  0  0  0  0  0
    5.5520   -1.0950   -0.0980 C   0  0  0  0  0  0  0  0  0  0  0  0
    8.0360    1.6870    0.0460 N   0  0  0  0  0  0  0  0  0  0  0  0
    4.4160    1.0170   -0.0100 C   0  0  0  0  0  0  0  0  0  0  0  0
    9.1540   -3.1270   -0.6000 O   0  5  0  0  0  0  0  0  0  0  0  0
    4.3740   -0.3780   -0.1000 C   0  0  0  0  0  0  0  0  0  0  0  0
    5.6270    3.1180    0.1800 N   0  0  0  0  0  0  0  0  0  0  0  0
    7.3690   -3.3120    0.6570 O   0  0  0  0  0  0  0  0  0  0  0  0
    3.2420    1.6890   -0.0230 F   0  0  0  0  0  0  0  0  0  0  0  0
    9.1620    1.0320    0.0150 C   0  0  0  0  0  0  0  0  0  0  0  0
    9.2150   -0.3720   -0.0060 C   0  0  0  0  0  0  0  0  0  0  0  0
  1  2  2  0  0  0  0
  1  3  1  0  0  0  0
  1  7  1  0  0  0  0
  2  4  1  0  0  0  0
  2  6  1  0  0  0  0
  3  8  2  0  0  0  0
  3 11  1  0  0  0  0
  4  5  1  0  0  0  0
  4 15  2  0  0  0  0
  5  9  1  0  0  0  0
  5 12  2  0  0  0  0
  6 10  2  0  0  0  0
  7 14  2  0  0  0  0
  8 10  1  0  0  0  0
  8 13  1  0  0  0  0
 14 15  1  0  0  0  0
M  CHG  1   9  -1
M  END
>  <NScode>
NS-000679579-0000

>  <a_acc>
2

>  <a_don>
3

>  <chiral>
0

>  <opr_nrot>
1

>  <Weight>
206.17599

>  <druglike>
1

>  <lip_druglike>
1

>  <lip_violation>
0

>  <logS>
-1.95868

$$$$
