NS-050117608-0000
  MOE2022           3D

 27 30  0  0  0  0  0  0  0  0999 V2000
   -1.2780   -5.0490   -2.9110 C   0  0  0  0  0  0  0  0  0  0  0  0
   -2.3360   -5.4530   -2.0130 O   0  0  0  0  0  0  0  0  0  0  0  0
   -2.0530   -5.4170   -0.6620 C   0  0  0  0  0  0  0  0  0  0  0  0
   -1.6510   -6.5860   -0.0270 C   0  0  0  0  0  0  0  0  0  0  0  0
   -1.3420   -6.5590    1.3330 C   0  0  0  0  0  0  0  0  0  0  0  0
   -1.4450   -5.3660    2.0520 C   0  0  0  0  0  0  0  0  0  0  0  0
   -1.8570   -4.1950    1.4190 C   0  0  0  0  0  0  0  0  0  0  0  0
   -2.1590   -4.2170    0.0570 C   0  0  0  0  0  0  0  0  0  0  0  0
   -2.6090   -3.0550   -0.6050 N   0  0  0  0  0  0  0  0  0  0  0  0
   -2.0960   -1.7570   -0.4140 C   0  0  0  0  0  0  0  0  0  0  0  0
   -2.9180   -0.6740   -0.7310 C   0  0  0  0  0  0  0  0  0  0  0  0
   -2.4400    0.6220   -0.5730 C   0  0  0  0  0  0  0  0  0  0  0  0
   -1.1400    0.8280   -0.1050 C   0  0  0  0  0  0  0  0  0  0  0  0
   -0.7110    2.1690    0.0630 N   0  0  0  0  0  0  0  0  0  0  0  0
    0.5520    2.6740   -0.1200 C   0  0  0  0  0  0  0  0  0  0  0  0
    1.4350    1.9420   -0.5490 O   0  0  0  0  0  0  0  0  0  0  0  0
    0.7450    4.0750    0.1920 C   0  0  0  0  0  0  0  0  0  0  0  0
   -0.0820    4.9830    0.7860 C   0  0  0  0  0  0  0  0  0  0  0  0
    0.5140    6.1880    0.8920 N   0  0  0  0  0  0  0  0  0  0  0  0
    1.7020    6.0370    0.3750 C   0  0  0  0  0  0  0  0  0  0  0  0
    2.8000    7.0780    0.2240 C   0  0  0  0  0  0  0  0  0  0  0  0
    4.1470    6.4870    0.0560 N   0  0  0  0  0  0  0  0  0  0  0  0
    4.1050    5.4510   -1.0080 C   0  0  0  0  0  0  0  0  0  0  0  0
    3.1390    4.3060   -0.6570 C   0  0  0  0  0  0  0  0  0  0  0  0
    1.8820    4.7710   -0.0680 N   0  0  0  0  0  0  0  0  0  0  0  0
   -0.3160   -0.2570    0.2140 C   0  0  0  0  0  0  0  0  0  0  0  0
   -0.7940   -1.5530    0.0540 C   0  0  0  0  0  0  0  0  0  0  0  0
  1  2  1  0  0  0  0
  2  3  1  0  0  0  0
  3  4  1  0  0  0  0
  3  8  2  0  0  0  0
  4  5  2  0  0  0  0
  5  6  1  0  0  0  0
  6  7  2  0  0  0  0
  7  8  1  0  0  0  0
  8  9  1  0  0  0  0
  9 10  1  0  0  0  0
 10 11  1  0  0  0  0
 10 27  2  0  0  0  0
 11 12  2  0  0  0  0
 12 13  1  0  0  0  0
 13 14  1  0  0  0  0
 13 26  2  0  0  0  0
 14 15  1  0  0  0  0
 15 16  2  0  0  0  0
 15 17  1  0  0  0  0
 17 18  2  0  0  0  0
 17 25  1  0  0  0  0
 18 19  1  0  0  0  0
 19 20  2  0  0  0  0
 20 21  1  0  0  0  0
 20 25  1  0  0  0  0
 21 22  1  0  0  0  0
 22 23  1  0  0  0  0
 23 24  1  0  0  0  0
 24 25  1  0  0  0  0
 26 27  1  0  0  0  0
M  END
>  <NScode>
NS-050117608-0000

>  <a_acc>
4

>  <a_don>
3

>  <chiral>
0

>  <opr_nrot>
6

>  <Weight>
363.42099

>  <druglike>
1

>  <lip_druglike>
1

>  <lip_violation>
0

>  <logS>
-3.3978801

$$$$
