NS-004779877-0000
  MOE2022           3D

 17 19  0  0  0  0  0  0  0  0999 V2000
    0.0480    2.8610   -0.3290 C   0  0  0  0  0  0  0  0  0  0  0  0
    0.9000    1.7900   -0.5120 N   0  0  0  0  0  0  0  0  0  0  0  0
    2.2160    2.2440   -0.4010 C   0  0  0  0  0  0  0  0  0  0  0  0
    0.8230    3.9550   -0.0860 N   0  0  0  0  0  0  0  0  0  0  0  0
    2.1630    3.5970   -0.1270 C   0  0  0  0  0  0  0  0  0  0  0  0
    3.4310    1.5740   -0.5210 C   0  0  0  0  0  0  0  0  0  0  0  0
    0.4740    0.4370   -0.8370 C   0  0  0  0  0  0  0  0  0  0  0  0
    3.3130    4.3600    0.0500 C   0  0  0  0  0  0  0  0  0  0  0  0
    4.6010    2.3110   -0.3460 C   0  0  0  0  0  0  0  0  0  0  0  0
   -0.4880   -0.2790    0.0680 C   0  0  0  0  0  0  0  0  0  0  0  0
    0.9440   -0.7150    0.0070 C   0  0  0  0  0  0  0  0  0  0  0  0
    4.5460    3.7060   -0.0620 C   0  0  0  0  0  0  0  0  0  0  0  0
   -1.1810    2.8730   -0.3770 O   0  0  0  0  0  0  0  0  0  0  0  0
    5.7770    1.5760   -0.4710 O   0  0  0  0  0  0  0  0  0  0  0  0
    5.7210    4.4350    0.1040 O   0  0  0  0  0  0  0  0  0  0  0  0
    5.8150    5.8500    0.3820 C   0  0  0  0  0  0  0  0  0  0  0  0
    7.1340    2.0210   -0.2560 C   0  0  0  0  0  0  0  0  0  0  0  0
  1  2  1  0  0  0  0
  1  4  1  0  0  0  0
  1 13  2  0  0  0  0
  2  3  1  0  0  0  0
  2  7  1  0  0  0  0
  3  5  2  0  0  0  0
  3  6  1  0  0  0  0
  4  5  1  0  0  0  0
  5  8  1  0  0  0  0
  6  9  2  0  0  0  0
  7 10  1  0  0  0  0
  7 11  1  0  0  0  0
  8 12  2  0  0  0  0
  9 12  1  0  0  0  0
  9 14  1  0  0  0  0
 10 11  1  0  0  0  0
 12 15  1  0  0  0  0
 14 17  1  0  0  0  0
 15 16  1  0  0  0  0
M  END
>  <NScode>
NS-004779877-0000

>  <a_acc>
3

>  <a_don>
1

>  <chiral>
0

>  <opr_nrot>
3

>  <Weight>
234.25499

>  <druglike>
1

>  <lip_druglike>
1

>  <lip_violation>
0

>  <logS>
-2.1537001

$$$$
