NS-019602774-0000
  MOE2022           3D

 24 26  0  0  1  0  0  0  0  0999 V2000
    0.0260    0.8650    0.2560 C   0  0  0  0  0  0  0  0  0  0  0  0
    0.9020    2.3330    0.1390 S   0  0  0  0  0  0  0  0  0  0  0  0
   -1.6420    2.4490    0.1680 N   0  0  0  0  0  0  0  0  0  0  0  0
   -0.5800    3.2210    0.1060 C   0  0  0  0  0  0  0  0  0  0  0  0
   -1.3150    1.1360    0.2460 C   0  0  0  0  0  0  0  0  0  0  0  0
   -0.3720   -2.6810    0.8770 C   0  0  0  0  0  0  0  0  0  0  0  0
    0.0330   -1.4340    1.1170 N   0  0  0  0  0  0  0  0  0  0  0  0
    0.7540   -0.4750    0.3090 C   0  0  3  0  0  0  0  0  0  0  0  0
   -0.0770   -3.4850   -0.4380 C   0  0  0  0  0  0  0  0  0  0  0  0
   -0.6050    4.6840    0.0140 C   0  0  0  0  0  0  0  0  0  0  0  0
   -1.0670   -3.1630    1.7610 O   0  0  0  0  0  0  0  0  0  0  0  0
    1.6380   -5.7230    0.3330 O   0  0  0  0  0  0  0  0  0  0  0  0
   -2.4390    0.1260    0.3100 C   0  0  0  0  0  0  0  0  0  0  0  0
   -0.5640   -4.9560   -0.3110 C   0  0  0  0  0  0  0  0  0  0  0  0
    1.4310   -3.6060   -0.7770 C   0  0  0  0  0  0  0  0  0  0  0  0
   -0.8460   -2.9040   -1.6480 C   0  0  0  0  0  0  0  0  0  0  0  0
    2.1800   -0.3560    0.8610 C   0  0  0  0  0  0  0  0  0  0  0  0
    2.1760   -4.4120    0.2940 C   0  0  0  0  0  0  0  0  0  0  0  0
    0.2670   -5.7580    0.7030 C   0  0  0  0  0  0  0  0  0  0  0  0
    0.5730    5.4420   -0.1010 C   0  0  0  0  0  0  0  0  0  0  0  0
   -1.8300    5.3710    0.0380 C   0  0  0  0  0  0  0  0  0  0  0  0
   -1.8760    6.7580   -0.0470 C   0  0  0  0  0  0  0  0  0  0  0  0
    0.5240    6.8290   -0.1860 C   0  0  0  0  0  0  0  0  0  0  0  0
   -0.6990    7.4890   -0.1600 C   0  0  0  0  0  0  0  0  0  0  0  0
  1  2  1  0  0  0  0
  1  5  2  0  0  0  0
  1  8  1  0  0  0  0
  2  4  1  0  0  0  0
  3  4  2  0  0  0  0
  3  5  1  0  0  0  0
  4 10  1  0  0  0  0
  5 13  1  0  0  0  0
  6  7  1  0  0  0  0
  6  9  1  0  0  0  0
  6 11  2  0  0  0  0
  7  8  1  0  0  0  0
  8 17  1  0  0  0  0
  9 14  1  0  0  0  0
  9 15  1  0  0  0  0
  9 16  1  0  0  0  0
 10 20  1  0  0  0  0
 10 21  2  0  0  0  0
 12 18  1  0  0  0  0
 12 19  1  0  0  0  0
 14 19  1  0  0  0  0
 15 18  1  0  0  0  0
 20 23  2  0  0  0  0
 21 22  1  0  0  0  0
 22 24  2  0  0  0  0
 23 24  1  0  0  0  0
M  END
>  <NScode>
NS-019602774-0000

>  <a_acc>
3

>  <a_don>
1

>  <chiral>
1

>  <opr_nrot>
6

>  <Weight>
344.479

>  <druglike>
1

>  <lip_druglike>
1

>  <lip_violation>
0

>  <logS>
-4.5330901

$$$$
