NS-050088134-0000
  MOE2022           3D

 19 20  0  0  0  0  0  0  0  0999 V2000
   -2.5550    4.0450   -1.1450 N   0  0  0  0  0  0  0  0  0  0  0  0
   -1.4880    3.5810   -0.4560 C   0  0  0  0  0  0  0  0  0  0  0  0
   -0.6250    4.4110   -0.2390 O   0  0  0  0  0  0  0  0  0  0  0  0
   -1.4160    2.1820   -0.0440 C   0  0  0  0  0  0  0  0  0  0  0  0
   -0.2000    1.4950   -0.1190 C   0  0  0  0  0  0  0  0  0  0  0  0
   -0.1050    0.1440    0.2300 C   0  0  0  0  0  0  0  0  0  0  0  0
   -1.2560   -0.5270    0.6660 C   0  0  0  0  0  0  0  0  0  0  0  0
   -2.4700    0.1390    0.7690 C   0  0  0  0  0  0  0  0  0  0  0  0
   -2.5440    1.4850    0.4300 C   0  0  0  0  0  0  0  0  0  0  0  0
   -3.7450    2.1080    0.5960 O   0  0  0  0  0  0  0  0  0  0  0  0
    1.1710   -0.5600    0.1370 C   0  0  0  0  0  0  0  0  0  0  0  0
    2.3350   -0.0090    0.6860 C   0  0  0  0  0  0  0  0  0  0  0  0
    3.5460   -0.6850    0.5970 C   0  0  0  0  0  0  0  0  0  0  0  0
    3.6110   -1.9200   -0.0370 C   0  0  0  0  0  0  0  0  0  0  0  0
    2.4630   -2.5010   -0.5970 C   0  0  0  0  0  0  0  0  0  0  0  0
    1.2520   -1.8010   -0.5020 C   0  0  0  0  0  0  0  0  0  0  0  0
    2.5260   -3.8100   -1.2690 C   0  0  0  0  0  0  0  0  0  0  0  0
    3.6290   -4.4170   -1.3490 O   0  5  0  0  0  0  0  0  0  0  0  0
    1.4730   -4.3110   -1.7560 O   0  0  0  0  0  0  0  0  0  0  0  0
  1  2  1  0  0  0  0
  2  3  2  0  0  0  0
  2  4  1  0  0  0  0
  4  5  1  0  0  0  0
  4  9  2  0  0  0  0
  5  6  2  0  0  0  0
  6  7  1  0  0  0  0
  6 11  1  0  0  0  0
  7  8  2  0  0  0  0
  8  9  1  0  0  0  0
  9 10  1  0  0  0  0
 11 12  1  0  0  0  0
 11 16  2  0  0  0  0
 12 13  2  0  0  0  0
 13 14  1  0  0  0  0
 14 15  2  0  0  0  0
 15 16  1  0  0  0  0
 15 17  1  0  0  0  0
 17 18  1  0  0  0  0
 17 19  2  0  0  0  0
M  CHG  1  18  -1
M  END
>  <NScode>
NS-050088134-0000

>  <a_acc>
3

>  <a_don>
4

>  <chiral>
0

>  <opr_nrot>
3

>  <Weight>
257.245

>  <druglike>
1

>  <lip_druglike>
1

>  <lip_violation>
0

>  <logS>
-3.67083

$$$$
