NS-017312369-0000
  MOE2022           3D

 24 25  0  0  0  0  0  0  0  0999 V2000
    2.7550    1.7620    0.9720 S   0  0  0  0  0  0  0  0  0  0  0  0
    0.0210   -2.9240   -0.4540 N   0  0  0  0  0  0  0  0  0  0  0  0
    1.8530    3.0130    0.0280 C   0  0  0  0  0  0  0  0  0  0  0  0
   -1.3270   -3.1990   -0.1130 C   0  0  0  0  0  0  0  0  0  0  0  0
    0.4490   -1.7140   -0.9180 C   0  0  0  0  0  0  0  0  0  0  0  0
   -1.9990   -2.4800    0.8910 C   0  0  0  0  0  0  0  0  0  0  0  0
    4.1300    1.8310    0.6170 O   0  0  0  0  0  0  0  0  0  0  0  0
    2.4270    1.9140    2.3440 O   0  0  0  0  0  0  0  0  0  0  0  0
   -3.3210   -2.7520    1.2120 C   0  0  0  0  0  0  0  0  0  0  0  0
    2.1440    0.3360    0.4480 N   0  0  0  0  0  0  0  0  0  0  0  0
    1.9280   -1.5320   -1.1350 C   0  0  0  0  0  0  0  0  0  0  0  0
   -0.3540   -0.8370   -1.1580 O   0  0  0  0  0  0  0  0  0  0  0  0
   -1.9870   -4.2240   -0.7980 C   0  0  0  0  0  0  0  0  0  0  0  0
    2.4140    3.5780   -1.1270 C   0  0  0  0  0  0  0  0  0  0  0  0
    0.5890    3.4450    0.4560 C   0  0  0  0  0  0  0  0  0  0  0  0
   -3.9570   -3.7700    0.5110 C   0  0  0  0  0  0  0  0  0  0  0  0
   -1.3560   -1.5170    1.5960 F   0  0  0  0  0  0  0  0  0  0  0  0
    2.3860   -0.0870   -0.9200 C   0  0  0  0  0  0  0  0  0  0  0  0
    0.4690    4.9430   -1.4050 C   0  0  0  0  0  0  0  0  0  0  0  0
   -3.3150   -4.5100   -0.4820 C   0  0  0  0  0  0  0  0  0  0  0  0
    1.7210    4.5450   -1.8510 C   0  0  0  0  0  0  0  0  0  0  0  0
   -0.1110    4.4110   -0.2630 C   0  0  0  0  0  0  0  0  0  0  0  0
   -5.2380   -4.0570    0.8050 F   0  0  0  0  0  0  0  0  0  0  0  0
   -0.2070    5.8830   -2.1060 F   0  0  0  0  0  0  0  0  0  0  0  0
  1  3  1  0  0  0  0
  1  7  2  0  0  0  0
  1  8  2  0  0  0  0
  1 10  1  0  0  0  0
  2  4  1  0  0  0  0
  2  5  1  0  0  0  0
  3 14  2  0  0  0  0
  3 15  1  0  0  0  0
  4  6  2  0  0  0  0
  4 13  1  0  0  0  0
  5 11  1  0  0  0  0
  5 12  2  0  0  0  0
  6  9  1  0  0  0  0
  6 17  1  0  0  0  0
  9 16  2  0  0  0  0
 10 18  1  0  0  0  0
 11 18  1  0  0  0  0
 13 20  2  0  0  0  0
 14 21  1  0  0  0  0
 15 22  2  0  0  0  0
 16 20  1  0  0  0  0
 16 23  1  0  0  0  0
 19 21  2  0  0  0  0
 19 22  1  0  0  0  0
 19 24  1  0  0  0  0
M  END
>  <NScode>
NS-017312369-0000

>  <a_acc>
3

>  <a_don>
2

>  <chiral>
0

>  <opr_nrot>
5

>  <Weight>
358.34

>  <druglike>
1

>  <lip_druglike>
1

>  <lip_violation>
0

>  <logS>
-3.98615

$$$$
