NS-026934617-0000
  MOE2022           3D

 17 18  0  0  0  0  0  0  0  0999 V2000
    1.1670    0.0720   -0.3870 C   0  0  0  0  0  0  0  0  0  0  0  0
    1.6250   -2.7610    0.0220 N   0  0  0  0  0  0  0  0  0  0  0  0
    0.0110   -0.9260   -0.3780 C   0  0  0  0  0  0  0  0  0  0  0  0
    2.5140   -0.5660   -0.7160 C   0  0  0  0  0  0  0  0  0  0  0  0
    4.2270   -5.8190   -1.5860 C   0  0  0  0  0  0  0  0  0  0  0  0
    5.2570   -6.2500   -0.7500 C   0  0  0  0  0  0  0  0  0  0  0  0
    3.1430   -5.0940   -1.1090 C   0  0  0  0  0  0  0  0  0  0  0  0
    3.0750   -4.7820    0.2490 C   0  0  0  0  0  0  0  0  0  0  0  0
    1.8950   -3.9960    0.7900 C   0  0  0  0  0  0  0  0  0  0  0  0
    2.7500   -1.8070    0.1490 C   0  0  0  0  0  0  0  0  0  0  0  0
    0.3610   -2.1480    0.4740 C   0  0  0  0  0  0  0  0  0  0  0  0
    5.1820   -5.9350    0.6060 C   0  0  0  0  0  0  0  0  0  0  0  0
    0.9060    1.0700   -1.2570 F   0  0  0  0  0  0  0  0  0  0  0  0
    1.2410    0.6880    0.8190 F   0  0  0  0  0  0  0  0  0  0  0  0
    4.2610   -6.1040   -2.9140 F   0  0  0  0  0  0  0  0  0  0  0  0
    4.0990   -5.2070    1.1010 C   0  0  0  0  0  0  0  0  0  0  0  0
    6.7330   -7.2370   -1.4040 Br  0  0  0  0  0  0  0  0  0  0  0  0
  1  3  1  0  0  0  0
  1  4  1  0  0  0  0
  1 13  1  0  0  0  0
  1 14  1  0  0  0  0
  2  9  1  0  0  0  0
  2 10  1  0  0  0  0
  2 11  1  0  0  0  0
  3 11  1  0  0  0  0
  4 10  1  0  0  0  0
  5  6  1  0  0  0  0
  5  7  2  0  0  0  0
  5 15  1  0  0  0  0
  6 12  2  0  0  0  0
  6 17  1  0  0  0  0
  7  8  1  0  0  0  0
  8  9  1  0  0  0  0
  8 16  2  0  0  0  0
 12 16  1  0  0  0  0
M  END
>  <NScode>
NS-026934617-0000

>  <a_acc>
1

>  <a_don>
0

>  <chiral>
0

>  <opr_nrot>
4

>  <Weight>
308.14099

>  <druglike>
1

>  <lip_druglike>
1

>  <lip_violation>
0

>  <logS>
-3.8974199

$$$$
