NS-007162053-0000
  MOE2022           3D

 12 12  0  0  0  0  0  0  0  0999 V2000
    8.6720   -1.5850   -0.8390 Br  0  0  0  0  0  0  0  0  0  0  0  0
    7.0700   -2.4860   -0.3570 C   0  0  0  0  0  0  0  0  0  0  0  0
    5.8880   -1.8360   -0.0250 C   0  0  0  0  0  0  0  0  0  0  0  0
    4.7130   -2.5410    0.3300 C   0  0  0  0  0  0  0  0  0  0  0  0
    4.7390   -3.9120    0.3490 N   0  0  0  0  0  0  0  0  0  0  0  0
    5.8520   -4.5530    0.0370 C   0  0  0  0  0  0  0  0  0  0  0  0
    7.0210   -3.8740   -0.3160 C   0  0  0  0  0  0  0  0  0  0  0  0
    8.1060   -4.6060   -0.6180 F   0  0  0  0  0  0  0  0  0  0  0  0
    3.6420   -1.9580    0.6310 O   0  5  0  0  0  0  0  0  0  0  0  0
    5.8280   -0.4300   -0.0340 N   0  3  0  0  0  0  0  0  0  0  0  0
    5.5940    0.1790   -1.0770 O   0  5  0  0  0  0  0  0  0  0  0  0
    6.1820    0.2170    0.9500 O   0  0  0  0  0  0  0  0  0  0  0  0
  1  2  1  0  0  0  0
  2  3  1  0  0  0  0
  2  7  2  0  0  0  0
  3  4  2  0  0  0  0
  3 10  1  0  0  0  0
  4  5  1  0  0  0  0
  4  9  1  0  0  0  0
  5  6  2  0  0  0  0
  6  7  1  0  0  0  0
  7  8  1  0  0  0  0
 10 11  1  0  0  0  0
 10 12  2  0  0  0  0
M  CHG  1   9  -1
M  CHG  1  10   1
M  CHG  1  11  -1
M  END
>  <NScode>
NS-007162053-0000

>  <a_acc>
2

>  <a_don>
2

>  <chiral>
0

>  <opr_nrot>
1

>  <Weight>
236.98399

>  <druglike>
1

>  <lip_druglike>
1

>  <lip_violation>
0

>  <logS>
-3.0649199

$$$$
