NS-014462161-0000
  MOE2022           3D

 29 30  0  0  0  0  0  0  0  0999 V2000
   -1.6630   -5.0780    0.1470 N   0  3  0  0  0  0  0  0  0  0  0  0
   -1.8420   -3.6490    0.2440 C   0  0  0  0  0  0  0  0  0  0  0  0
   -0.7290   -2.8050    0.4040 C   0  0  0  0  0  0  0  0  0  0  0  0
    0.5880   -3.3420    0.4810 N   0  0  0  0  0  0  0  0  0  0  0  0
    1.7410   -2.7920   -0.0100 C   0  0  0  0  0  0  0  0  0  0  0  0
   -2.3350   -5.7250   -0.6390 O   0  5  0  0  0  0  0  0  0  0  0  0
   12.4520   -3.8530    0.1860 C   0  0  0  0  0  0  0  0  0  0  0  0
   -0.8550   -5.6590    0.8570 O   0  0  0  0  0  0  0  0  0  0  0  0
    5.5240   -3.8270   -0.3100 C   0  0  0  0  0  0  0  0  0  0  0  0
   12.6810   -5.1880    0.5700 C   0  0  0  0  0  0  0  0  0  0  0  0
   11.1490   -3.3480    0.1770 C   0  0  0  0  0  0  0  0  0  0  0  0
    1.7250   -1.7290   -0.5920 O   0  0  0  0  0  0  0  0  0  0  0  0
    5.5080   -4.8940    0.2900 O   0  0  0  0  0  0  0  0  0  0  0  0
   11.6100   -5.9930    0.9440 C   0  0  0  0  0  0  0  0  0  0  0  0
    6.6410   -3.3150   -0.8230 N   0  0  0  0  0  0  0  0  0  0  0  0
    3.0010   -3.5990    0.1910 C   0  0  0  0  0  0  0  0  0  0  0  0
    4.2530   -3.0080   -0.4920 C   0  0  0  0  0  0  0  0  0  0  0  0
   10.0790   -4.1620    0.5520 C   0  0  0  0  0  0  0  0  0  0  0  0
   10.3150   -5.4820    0.9340 C   0  0  0  0  0  0  0  0  0  0  0  0
   13.5110   -3.0290   -0.1850 O   0  0  0  0  0  0  0  0  0  0  0  0
   -3.1420   -3.1420    0.1680 C   0  0  0  0  0  0  0  0  0  0  0  0
   13.9270   -5.8040    0.6120 O   0  0  0  0  0  0  0  0  0  0  0  0
    7.9350   -3.9880   -0.7690 C   0  0  0  0  0  0  0  0  0  0  0  0
   -0.9430   -1.4260    0.5110 C   0  0  0  0  0  0  0  0  0  0  0  0
    8.6640   -3.6220    0.5260 C   0  0  0  0  0  0  0  0  0  0  0  0
   13.4140   -1.6340   -0.5510 C   0  0  0  0  0  0  0  0  0  0  0  0
   15.2040   -5.2430    0.2370 C   0  0  0  0  0  0  0  0  0  0  0  0
   -3.3350   -1.7670    0.2660 C   0  0  0  0  0  0  0  0  0  0  0  0
   -2.2390   -0.9170    0.4380 C   0  0  0  0  0  0  0  0  0  0  0  0
  1  2  1  0  0  0  0
  1  6  1  0  0  0  0
  1  8  2  0  0  0  0
  2  3  2  0  0  0  0
  2 21  1  0  0  0  0
  3  4  1  0  0  0  0
  3 24  1  0  0  0  0
  4  5  1  0  0  0  0
  5 12  2  0  0  0  0
  5 16  1  0  0  0  0
  7 10  2  0  0  0  0
  7 11  1  0  0  0  0
  7 20  1  0  0  0  0
  9 13  2  0  0  0  0
  9 15  1  0  0  0  0
  9 17  1  0  0  0  0
 10 14  1  0  0  0  0
 10 22  1  0  0  0  0
 11 18  2  0  0  0  0
 14 19  2  0  0  0  0
 15 23  1  0  0  0  0
 16 17  1  0  0  0  0
 18 19  1  0  0  0  0
 18 25  1  0  0  0  0
 20 26  1  0  0  0  0
 21 28  2  0  0  0  0
 22 27  1  0  0  0  0
 23 25  1  0  0  0  0
 24 29  2  0  0  0  0
 28 29  1  0  0  0  0
M  CHG  1   1   1
M  CHG  1   6  -1
M  END
>  <NScode>
NS-014462161-0000

>  <a_acc>
4

>  <a_don>
2

>  <chiral>
0

>  <opr_nrot>
10

>  <Weight>
401.41901

>  <druglike>
1

>  <lip_druglike>
1

>  <lip_violation>
0

>  <logS>
-4.2437401

$$$$
