NS-042422911-0000
  MOE2022           3D

 27 29  0  0  0  0  0  0  0  0999 V2000
    3.6010    0.6870    3.4150 C   0  0  0  0  0  0  0  0  0  0  0  0
    4.2080    0.1520    2.2080 O   0  0  0  0  0  0  0  0  0  0  0  0
    3.4990   -0.5330    1.2730 C   0  0  0  0  0  0  0  0  0  0  0  0
    2.3020   -0.6700    1.4860 O   0  0  0  0  0  0  0  0  0  0  0  0
    4.2350   -1.0470    0.1060 C   0  0  0  0  0  0  0  0  0  0  0  0
    5.6100   -1.3020    0.2550 C   0  0  0  0  0  0  0  0  0  0  0  0
    6.3730   -1.7790   -0.8020 C   0  0  0  0  0  0  0  0  0  0  0  0
    5.7790   -2.0110   -2.0340 C   0  0  0  0  0  0  0  0  0  0  0  0
    4.4230   -1.7660   -2.2080 C   0  0  0  0  0  0  0  0  0  0  0  0
    3.6380   -1.2910   -1.1570 C   0  0  0  0  0  0  0  0  0  0  0  0
    2.1670   -1.0350   -1.4630 C   0  0  0  0  0  0  0  0  0  0  0  0
    1.8590    0.4470   -1.7240 C   0  0  0  0  0  0  0  0  0  0  0  0
    0.3830    0.6660   -2.0640 C   0  0  0  0  0  0  0  0  0  0  0  0
    0.0700    0.6930   -3.2490 O   0  0  0  0  0  0  0  0  0  0  0  0
   -0.5480    0.7570   -1.0920 N   0  0  0  0  0  0  0  0  0  0  0  0
   -0.2620    0.5950    0.3590 C   0  0  0  0  0  0  0  0  0  0  0  0
   -1.2910    1.2670    1.2950 C   0  0  0  0  0  0  0  0  0  0  0  0
   -2.6980    0.9680    0.9460 N   0  0  0  0  0  0  0  0  0  0  0  0
   -2.9380    1.3750   -0.4610 C   0  0  0  0  0  0  0  0  0  0  0  0
   -1.9880    0.6790   -1.4590 C   0  0  0  0  0  0  0  0  0  0  0  0
   -3.3330   -0.1980    1.4160 C   0  0  0  0  0  0  0  0  0  0  0  0
   -2.6490   -1.2040    2.1090 C   0  0  0  0  0  0  0  0  0  0  0  0
   -3.3370   -2.3330    2.5410 C   0  0  0  0  0  0  0  0  0  0  0  0
   -4.6450   -2.5010    2.3280 N   0  0  0  0  0  0  0  0  0  0  0  0
   -5.2880   -1.5300    1.6810 C   0  0  0  0  0  0  0  0  0  0  0  0
   -6.6160   -1.7140    1.4810 F   0  0  0  0  0  0  0  0  0  0  0  0
   -4.6990   -0.3700    1.2100 C   0  0  0  0  0  0  0  0  0  0  0  0
  1  2  1  0  0  0  0
  2  3  1  0  0  0  0
  3  4  2  0  0  0  0
  3  5  1  0  0  0  0
  5  6  1  0  0  0  0
  5 10  2  0  0  0  0
  6  7  2  0  0  0  0
  7  8  1  0  0  0  0
  8  9  2  0  0  0  0
  9 10  1  0  0  0  0
 10 11  1  0  0  0  0
 11 12  1  0  0  0  0
 12 13  1  0  0  0  0
 13 14  2  0  0  0  0
 13 15  1  0  0  0  0
 15 16  1  0  0  0  0
 15 20  1  0  0  0  0
 16 17  1  0  0  0  0
 17 18  1  0  0  0  0
 18 19  1  0  0  0  0
 18 21  1  0  0  0  0
 19 20  1  0  0  0  0
 21 22  1  0  0  0  0
 21 27  2  0  0  0  0
 22 23  2  0  0  0  0
 23 24  1  0  0  0  0
 24 25  2  0  0  0  0
 25 26  1  0  0  0  0
 25 27  1  0  0  0  0
M  END
>  <NScode>
NS-042422911-0000

>  <a_acc>
3

>  <a_don>
0

>  <chiral>
0

>  <opr_nrot>
7

>  <Weight>
371.41199

>  <druglike>
1

>  <lip_druglike>
1

>  <lip_violation>
0

>  <logS>
-2.9688301

$$$$
