NS-021977320-0000
  MOE2022           3D

 23 24  0  0  1  0  0  0  0  0999 V2000
    4.6690   -3.6760   -0.4820 C   0  0  0  0  0  0  0  0  0  0  0  0
    4.2800   -2.3850   -1.0610 N   0  0  0  0  0  0  0  0  0  0  0  0
    3.3140   -2.5700   -2.1480 C   0  0  0  0  0  0  0  0  0  0  0  0
    4.0480   -1.1260    0.0030 S   0  3  3  0  0  0  0  0  0  0  0  0
    4.8420   -1.2610    1.1560 O   0  0  0  0  0  0  0  0  0  0  0  0
    2.4790   -0.9240    0.3250 N   0  0  0  0  0  0  0  0  0  0  0  0
    1.5720   -1.8220    0.6000 C   0  0  0  0  0  0  0  0  0  0  0  0
    1.8050   -3.0700    0.5670 O   0  5  0  0  0  0  0  0  0  0  0  0
    0.2130   -1.3850    0.9510 C   0  0  0  0  0  0  0  0  0  0  0  0
   -0.8150   -2.3310    1.0890 C   0  0  0  0  0  0  0  0  0  0  0  0
   -2.1100   -1.9460    1.4140 C   0  0  0  0  0  0  0  0  0  0  0  0
   -2.3920   -0.5940    1.6030 C   0  0  0  0  0  0  0  0  0  0  0  0
   -3.7080   -0.2130    1.9220 N   0  0  0  0  0  0  0  0  0  0  0  0
   -4.4730    0.6770    1.2380 C   0  0  0  0  0  0  0  0  0  0  0  0
   -5.5580    0.9160    1.7180 O   0  0  0  0  0  0  0  0  0  0  0  0
   -3.9640    1.3150   -0.0490 C   0  0  1  0  0  0  0  0  0  0  0  0
   -4.8100    2.2860   -0.8180 C   0  0  0  0  0  0  0  0  0  0  0  0
   -3.5710    2.7810   -0.1190 C   0  0  0  0  0  0  0  0  0  0  0  0
   -2.3620    3.1530   -0.9940 C   0  0  0  0  0  0  0  0  0  0  0  0
   -3.7790    3.6830    1.1130 C   0  0  0  0  0  0  0  0  0  0  0  0
   -1.3850    0.3680    1.4940 C   0  0  0  0  0  0  0  0  0  0  0  0
   -0.0940   -0.0310    1.1670 C   0  0  0  0  0  0  0  0  0  0  0  0
    4.5400    0.3370   -0.8680 C   0  0  0  0  0  0  0  0  0  0  0  0
  1  2  1  0  0  0  0
  2  3  1  0  0  0  0
  2  4  1  0  0  0  0
  4  5  2  0  0  0  0
  4  6  1  0  0  0  0
  4 23  1  0  0  0  0
  6  7  2  0  0  0  0
  7  8  1  0  0  0  0
  7  9  1  0  0  0  0
  9 10  1  0  0  0  0
  9 22  2  0  0  0  0
 10 11  2  0  0  0  0
 11 12  1  0  0  0  0
 12 13  1  0  0  0  0
 12 21  2  0  0  0  0
 13 14  1  0  0  0  0
 14 15  2  0  0  0  0
 14 16  1  0  0  0  0
 16 17  1  0  0  0  0
 16 18  1  0  0  0  0
 17 18  1  0  0  0  0
 18 19  1  0  0  0  0
 18 20  1  0  0  0  0
 21 22  1  0  0  0  0
M  CHG  1   4   1
M  CHG  1   8  -1
M  END
>  <NScode>
NS-021977320-0000

>  <a_acc>
3

>  <a_don>
1

>  <chiral>
2

>  <opr_nrot>
5

>  <Weight>
337.444

>  <druglike>
1

>  <lip_druglike>
1

>  <lip_violation>
0

>  <logS>
-3.11185

$$$$
