NS-019339461-0000
  MOE2022           3D

 22 23  0  0  0  0  0  0  0  0999 V2000
    1.2490   -0.5090    2.2900 S   0  0  0  0  0  0  0  0  0  0  0  0
   -0.1720    0.2920    1.5940 C   0  0  0  0  0  0  0  0  0  0  0  0
   -0.9880   -0.5160    0.6340 C   0  0  0  0  0  0  0  0  0  0  0  0
   -2.1370    0.0860    0.1870 N   0  0  0  0  0  0  0  0  0  0  0  0
    1.9910   -1.3090    1.0610 N   0  0  0  0  0  0  0  0  0  0  0  0
    2.1120    0.5030    2.7830 O   0  0  0  0  0  0  0  0  0  0  0  0
    0.7790   -1.4660    3.2240 O   0  0  0  0  0  0  0  0  0  0  0  0
   -3.1210   -0.3560   -0.7440 C   0  0  0  0  0  0  0  0  0  0  0  0
   -0.6600   -1.6110    0.2320 O   0  0  0  0  0  0  0  0  0  0  0  0
   -4.1280    0.5700   -1.0540 C   0  0  0  0  0  0  0  0  0  0  0  0
    2.8440   -0.7020    0.0510 C   0  0  0  0  0  0  0  0  0  0  0  0
   -4.1270    1.8180   -0.4660 O   0  0  0  0  0  0  0  0  0  0  0  0
    4.2300   -0.3480    0.6050 C   0  0  0  0  0  0  0  0  0  0  0  0
    2.2090    0.5020   -0.6580 C   0  0  0  0  0  0  0  0  0  0  0  0
    5.1500    0.1700   -0.5130 C   0  0  0  0  0  0  0  0  0  0  0  0
    3.1250    1.0150   -1.7810 C   0  0  0  0  0  0  0  0  0  0  0  0
    4.5160    1.3750   -1.2320 C   0  0  0  0  0  0  0  0  0  0  0  0
   -3.1400   -1.6220   -1.3390 C   0  0  0  0  0  0  0  0  0  0  0  0
   -5.1390    0.2480   -1.9540 C   0  0  0  0  0  0  0  0  0  0  0  0
    5.4250    1.8470   -2.3730 C   0  0  0  0  0  0  0  0  0  0  0  0
   -4.1540   -1.9420   -2.2400 C   0  0  0  0  0  0  0  0  0  0  0  0
   -5.1490   -1.0130   -2.5470 C   0  0  0  0  0  0  0  0  0  0  0  0
  1  2  1  0  0  0  0
  1  5  1  0  0  0  0
  1  6  2  0  0  0  0
  1  7  2  0  0  0  0
  2  3  1  0  0  0  0
  3  4  1  0  0  0  0
  3  9  2  0  0  0  0
  4  8  1  0  0  0  0
  5 11  1  0  0  0  0
  8 10  2  0  0  0  0
  8 18  1  0  0  0  0
 10 12  1  0  0  0  0
 10 19  1  0  0  0  0
 11 13  1  0  0  0  0
 11 14  1  0  0  0  0
 13 15  1  0  0  0  0
 14 16  1  0  0  0  0
 15 17  1  0  0  0  0
 16 17  1  0  0  0  0
 17 20  1  0  0  0  0
 18 21  2  0  0  0  0
 19 22  2  0  0  0  0
 21 22  1  0  0  0  0
M  END
>  <NScode>
NS-019339461-0000

>  <a_acc>
4

>  <a_don>
3

>  <chiral>
0

>  <opr_nrot>
6

>  <Weight>
326.41699

>  <druglike>
1

>  <lip_druglike>
1

>  <lip_violation>
0

>  <logS>
-3.01984

$$$$
