NS-049996495-0000
  MOE2022           3D

 25 28  0  0  1  0  0  0  0  0999 V2000
    5.1060   -3.5010    2.0660 C   0  0  0  0  0  0  0  0  0  0  0  0
    3.8390   -3.0960    1.3260 N   0  3  0  0  0  0  0  0  0  0  0  0
    3.8480   -1.6230    0.9080 C   0  0  0  0  0  0  0  0  0  0  0  0
    2.5740   -3.4900    2.0640 C   0  0  0  0  0  0  0  0  0  0  0  0
    1.3230   -3.3390    1.2330 C   0  0  0  0  0  0  0  0  0  0  0  0
    0.7790   -4.3980    0.5060 C   0  0  0  0  0  0  0  0  0  0  0  0
   -0.3550   -4.1890   -0.2790 C   0  0  0  0  0  0  0  0  0  0  0  0
   -0.9330   -2.9940   -0.3820 N   0  0  0  0  0  0  0  0  0  0  0  0
   -0.4130   -1.9770    0.2940 C   0  0  0  0  0  0  0  0  0  0  0  0
   -1.0610   -0.7820    0.0730 N   0  0  0  0  0  0  0  0  0  0  0  0
   -0.4810    0.4490    0.0250 C   0  0  0  0  0  0  0  0  0  0  0  0
    0.6870    0.6570    0.3490 O   0  0  0  0  0  0  0  0  0  0  0  0
   -1.3080    1.4380   -0.4150 N   0  0  0  0  0  0  0  0  0  0  0  0
   -2.1230    1.3110   -1.6280 C   0  0  3  0  0  0  0  0  0  0  0  0
   -1.2820    2.0200   -2.7050 C   0  0  0  0  0  0  0  0  0  0  0  0
   -0.3750    2.9750   -1.9210 C   0  0  0  0  0  0  0  0  0  0  0  0
   -0.8370    2.8180   -0.4690 C   0  0  3  0  0  0  0  0  0  0  0  0
   -2.0180    3.7360   -0.2150 C   0  0  0  0  0  0  0  0  0  0  0  0
   -1.8920    4.9530    0.4330 C   0  0  0  0  0  0  0  0  0  0  0  0
   -2.9520    5.7320    0.5880 N   0  0  0  0  0  0  0  0  0  0  0  0
   -4.1310    5.3300    0.1160 C   0  0  0  0  0  0  0  0  0  0  0  0
   -4.3080    4.1690   -0.5130 N   0  0  0  0  0  0  0  0  0  0  0  0
   -3.2720    3.3640   -0.6840 C   0  0  0  0  0  0  0  0  0  0  0  0
   -3.4680    2.0280   -1.3780 C   0  0  0  0  0  0  0  0  0  0  0  0
    0.6890   -2.1120    1.1410 C   0  0  0  0  0  0  0  0  0  0  0  0
  1  2  1  0  0  0  0
  2  3  1  0  0  0  0
  2  4  1  0  0  0  0
  4  5  1  0  0  0  0
  5  6  1  0  0  0  0
  5 25  2  0  0  0  0
  6  7  2  0  0  0  0
  7  8  1  0  0  0  0
  8  9  2  0  0  0  0
  9 10  1  0  0  0  0
  9 25  1  0  0  0  0
 10 11  1  0  0  0  0
 11 12  2  0  0  0  0
 11 13  1  0  0  0  0
 13 14  1  0  0  0  0
 13 17  1  0  0  0  0
 14 15  1  0  0  0  0
 14 24  1  0  0  0  0
 15 16  1  0  0  0  0
 16 17  1  0  0  0  0
 17 18  1  0  0  0  0
 18 19  1  0  0  0  0
 18 23  2  0  0  0  0
 19 20  2  0  0  0  0
 20 21  1  0  0  0  0
 21 22  2  0  0  0  0
 22 23  1  0  0  0  0
 23 24  1  0  0  0  0
M  CHG  1   2   1
M  END
>  <NScode>
NS-049996495-0000

>  <a_acc>
5

>  <a_don>
1

>  <chiral>
2

>  <opr_nrot>
3

>  <Weight>
338.41501

>  <druglike>
1

>  <lip_druglike>
1

>  <lip_violation>
0

>  <logS>
-1.8067

$$$$
