NS-011446832-0000
  MOE2022           3D

 15 15  0  0  0  0  0  0  0  0999 V2000
    1.1590    0.0790    0.1810 C   0  0  0  0  0  0  0  0  0  0  0  0
    3.4140    3.1150    0.1060 C   0  0  0  0  0  0  0  0  0  0  0  0
    0.2760    0.4730    0.9130 O   0  0  0  0  0  0  0  0  0  0  0  0
    4.5470    2.5910   -0.5340 C   0  0  0  0  0  0  0  0  0  0  0  0
    1.0110   -1.3240   -0.4170 C   0  0  0  0  0  0  0  0  0  0  0  0
   -0.4540   -1.7010   -0.7210 C   0  0  0  0  0  0  0  0  0  0  0  0
    1.6700   -2.3990    0.4680 C   0  0  0  0  0  0  0  0  0  0  0  0
    4.5800    1.2610   -0.9350 C   0  0  0  0  0  0  0  0  0  0  0  0
    3.4870    0.4340   -0.7060 C   0  0  0  0  0  0  0  0  0  0  0  0
    2.3320    0.9260   -0.0720 C   0  0  0  0  0  0  0  0  0  0  0  0
    2.3190    2.2710    0.3300 C   0  0  0  0  0  0  0  0  0  0  0  0
    3.3690    4.5170    0.5350 C   0  0  0  0  0  0  0  0  0  0  0  0
    4.4640    5.2910    0.3210 O   0  0  0  0  0  0  0  0  0  0  0  0
    2.4040    5.0380    1.0740 O   0  0  0  0  0  0  0  0  0  0  0  0
    4.4990    6.6900    0.7170 C   0  0  0  0  0  0  0  0  0  0  0  0
  1  3  2  0  0  0  0
  1  5  1  0  0  0  0
  1 10  1  0  0  0  0
  2  4  1  0  0  0  0
  2 11  2  0  0  0  0
  2 12  1  0  0  0  0
  4  8  2  0  0  0  0
  5  6  1  0  0  0  0
  5  7  1  0  0  0  0
  8  9  1  0  0  0  0
  9 10  2  0  0  0  0
 10 11  1  0  0  0  0
 12 13  1  0  0  0  0
 12 14  2  0  0  0  0
 13 15  1  0  0  0  0
M  END
>  <NScode>
NS-011446832-0000

>  <a_acc>
2

>  <a_don>
0

>  <chiral>
0

>  <opr_nrot>
3

>  <Weight>
206.241

>  <druglike>
1

>  <lip_druglike>
1

>  <lip_violation>
0

>  <logS>
-2.48242

$$$$
