NS-012736090-0000
  MOE2022           3D

 22 24  0  0  1  0  0  0  0  0999 V2000
   -2.3970    3.8610   -2.2060 F   0  0  0  0  0  0  0  0  0  0  0  0
   -3.1420    3.7960   -1.0870 C   0  0  0  0  0  0  0  0  0  0  0  0
   -3.5450    5.0470   -0.8190 F   0  0  0  0  0  0  0  0  0  0  0  0
   -2.3550    3.2850    0.0120 O   0  0  0  0  0  0  0  0  0  0  0  0
   -1.8170    2.0180   -0.0860 C   0  0  0  0  0  0  0  0  0  0  0  0
   -0.4360    1.9110   -0.2120 C   0  0  0  0  0  0  0  0  0  0  0  0
    0.1540    0.6550   -0.3200 C   0  0  0  0  0  0  0  0  0  0  0  0
   -0.6520   -0.4890   -0.2910 C   0  0  0  0  0  0  0  0  0  0  0  0
   -2.0400   -0.3870   -0.1610 C   0  0  0  0  0  0  0  0  0  0  0  0
   -2.6280    0.8700   -0.0530 C   0  0  0  0  0  0  0  0  0  0  0  0
   -4.3480    0.9860    0.1330 Cl  0  0  0  0  0  0  0  0  0  0  0  0
   -0.0580   -1.7780   -0.3760 N   0  0  0  0  0  0  0  0  0  0  0  0
    1.0270   -2.2380    0.4880 C   0  0  3  0  0  0  0  0  0  0  0  0
    2.4210   -1.7950    0.0070 C   0  0  0  0  0  0  0  0  0  0  0  0
    3.5480   -3.1410    0.1750 S   0  0  0  0  0  0  0  0  0  0  0  0
    4.1240   -3.4390   -1.0870 O   0  0  0  0  0  0  0  0  0  0  0  0
    4.3930   -2.9080    1.2900 O   0  0  0  0  0  0  0  0  0  0  0  0
    2.3600   -4.3840    0.5840 C   0  0  0  0  0  0  0  0  0  0  0  0
    0.9460   -3.7840    0.4600 C   0  0  3  0  0  0  0  0  0  0  0  0
    0.2290   -4.0670   -0.8670 C   0  0  0  0  0  0  0  0  0  0  0  0
   -0.5250   -2.8020   -1.1640 C   0  0  0  0  0  0  0  0  0  0  0  0
   -1.4330   -2.6810   -1.9550 O   0  0  0  0  0  0  0  0  0  0  0  0
  1  2  1  0  0  0  0
  2  3  1  0  0  0  0
  2  4  1  0  0  0  0
  4  5  1  0  0  0  0
  5  6  1  0  0  0  0
  5 10  2  0  0  0  0
  6  7  2  0  0  0  0
  7  8  1  0  0  0  0
  8  9  2  0  0  0  0
  8 12  1  0  0  0  0
  9 10  1  0  0  0  0
 10 11  1  0  0  0  0
 12 13  1  0  0  0  0
 12 21  1  0  0  0  0
 13 14  1  0  0  0  0
 13 19  1  0  0  0  0
 14 15  1  0  0  0  0
 15 16  2  0  0  0  0
 15 17  2  0  0  0  0
 15 18  1  0  0  0  0
 18 19  1  0  0  0  0
 19 20  1  0  0  0  0
 20 21  1  0  0  0  0
 21 22  2  0  0  0  0
M  END
>  <NScode>
NS-012736090-0000

>  <a_acc>
4

>  <a_don>
0

>  <chiral>
2

>  <opr_nrot>
3

>  <Weight>
351.75699

>  <druglike>
1

>  <lip_druglike>
1

>  <lip_violation>
0

>  <logS>
-2.71662

$$$$
