NS-017892580-0000
  MOE2022           3D

 22 24  0  0  0  0  0  0  0  0999 V2000
    1.9520   -0.0590   -1.2780 C   0  0  0  0  0  0  0  0  0  0  0  0
   -2.1370   -0.3270    0.1030 C   0  0  0  0  0  0  0  0  0  0  0  0
    3.1450   -0.2980   -0.6370 N   0  0  0  0  0  0  0  0  0  0  0  0
   -2.0220    1.0300   -0.1760 N   0  0  0  0  0  0  0  0  0  0  0  0
   -1.3380   -1.2710   -0.5680 C   0  0  0  0  0  0  0  0  0  0  0  0
    1.0280   -1.0430   -1.1950 N   0  0  0  0  0  0  0  0  0  0  0  0
   -3.0360   -0.6750    1.0290 N   0  0  0  0  0  0  0  0  0  0  0  0
   -0.3500   -0.8590   -1.6390 C   0  0  0  0  0  0  0  0  0  0  0  0
    1.7180    0.9940   -1.8620 O   0  0  0  0  0  0  0  0  0  0  0  0
    5.8410   -0.6850    1.0590 S   0  0  0  0  0  0  0  0  0  0  0  0
   -1.8060    3.9280    0.1320 O   0  0  0  0  0  0  0  0  0  0  0  0
    3.6810   -1.6630   -0.4090 C   0  0  0  0  0  0  0  0  0  0  0  0
    4.1720    0.7720   -0.6480 C   0  0  0  0  0  0  0  0  0  0  0  0
   -0.8360    1.6830    0.4170 C   0  0  0  0  0  0  0  0  0  0  0  0
   -3.2030    1.8920    0.0560 C   0  0  0  0  0  0  0  0  0  0  0  0
   -1.4890   -2.6100   -0.2410 C   0  0  0  0  0  0  0  0  0  0  0  0
    4.9760    0.8710    0.6580 C   0  0  0  0  0  0  0  0  0  0  0  0
    4.4130   -1.8130    0.9340 C   0  0  0  0  0  0  0  0  0  0  0  0
   -3.1790   -1.9600    1.3390 C   0  0  0  0  0  0  0  0  0  0  0  0
   -2.9750    3.3350   -0.4440 C   0  0  0  0  0  0  0  0  0  0  0  0
   -0.6460    3.1230   -0.1020 C   0  0  0  0  0  0  0  0  0  0  0  0
   -2.4240   -2.9550    0.7290 C   0  0  0  0  0  0  0  0  0  0  0  0
  1  3  1  0  0  0  0
  1  6  1  0  0  0  0
  1  9  2  0  0  0  0
  2  4  1  0  0  0  0
  2  5  2  0  0  0  0
  2  7  1  0  0  0  0
  3 12  1  0  0  0  0
  3 13  1  0  0  0  0
  4 14  1  0  0  0  0
  4 15  1  0  0  0  0
  5  8  1  0  0  0  0
  5 16  1  0  0  0  0
  6  8  1  0  0  0  0
  7 19  2  0  0  0  0
 10 17  1  0  0  0  0
 10 18  1  0  0  0  0
 11 20  1  0  0  0  0
 11 21  1  0  0  0  0
 12 18  1  0  0  0  0
 13 17  1  0  0  0  0
 14 21  1  0  0  0  0
 15 20  1  0  0  0  0
 16 22  2  0  0  0  0
 19 22  1  0  0  0  0
M  END
>  <NScode>
NS-017892580-0000

>  <a_acc>
3

>  <a_don>
1

>  <chiral>
0

>  <opr_nrot>
7

>  <Weight>
322.43298

>  <druglike>
1

>  <lip_druglike>
1

>  <lip_violation>
0

>  <logS>
-1.67897

$$$$
