NS-020404466-0000
  MOE2022           3D

 24 26  0  0  0  0  0  0  0  0999 V2000
   -9.1780    3.4530   -0.7840 C   0  0  0  0  0  0  0  0  0  0  0  0
   -2.8240    5.5480    0.3930 C   0  0  0  0  0  0  0  0  0  0  0  0
   -8.0780    3.9930    0.0180 C   0  0  0  0  0  0  0  0  0  0  0  0
  -11.1780    1.9830   -1.5230 S   0  0  0  0  0  0  0  0  0  0  0  0
   -7.9930    3.6400    1.3140 N   0  0  0  0  0  0  0  0  0  0  0  0
   -9.9710    2.4090   -0.3670 C   0  0  0  0  0  0  0  0  0  0  0  0
   -1.8370    4.6780    0.1210 N   0  0  0  0  0  0  0  0  0  0  0  0
   -3.7780    5.5800   -0.5560 N   0  0  0  0  0  0  0  0  0  0  0  0
   -9.5730    3.9140   -2.0650 C   0  0  0  0  0  0  0  0  0  0  0  0
  -10.6270    3.2240   -2.5880 C   0  0  0  0  0  0  0  0  0  0  0  0
   -2.8460    6.2380    1.4030 O   0  0  0  0  0  0  0  0  0  0  0  0
   -7.1150    4.8570   -0.5270 C   0  0  0  0  0  0  0  0  0  0  0  0
   -6.0840    5.3560    0.2570 C   0  0  0  0  0  0  0  0  0  0  0  0
   -5.0300    6.2800   -0.3100 C   0  0  0  0  0  0  0  0  0  0  0  0
   -0.6410    4.6610    0.9430 C   0  0  0  0  0  0  0  0  0  0  0  0
    2.1660    1.7180   -0.4660 C   0  0  0  0  0  0  0  0  0  0  0  0
    0.3490    3.6290    0.4500 C   0  0  0  0  0  0  0  0  0  0  0  0
   -7.0120    4.1030    2.0830 C   0  0  0  0  0  0  0  0  0  0  0  0
    3.2960    0.5320   -1.0320 Cl  0  0  0  0  0  0  0  0  0  0  0  0
    2.3290    3.0580   -0.8160 C   0  0  0  0  0  0  0  0  0  0  0  0
    1.0930    1.3310    0.3370 C   0  0  0  0  0  0  0  0  0  0  0  0
    1.4210    4.0090   -0.3590 C   0  0  0  0  0  0  0  0  0  0  0  0
    0.1880    2.2850    0.7910 C   0  0  0  0  0  0  0  0  0  0  0  0
   -6.0400    4.9630    1.5880 C   0  0  0  0  0  0  0  0  0  0  0  0
  1  3  1  0  0  0  0
  1  6  2  0  0  0  0
  1  9  1  0  0  0  0
  2  7  1  0  0  0  0
  2  8  1  0  0  0  0
  2 11  2  0  0  0  0
  3  5  1  0  0  0  0
  3 12  2  0  0  0  0
  4  6  1  0  0  0  0
  4 10  1  0  0  0  0
  5 18  2  0  0  0  0
  7 15  1  0  0  0  0
  8 14  1  0  0  0  0
  9 10  2  0  0  0  0
 12 13  1  0  0  0  0
 13 14  1  0  0  0  0
 13 24  2  0  0  0  0
 15 17  1  0  0  0  0
 16 19  1  0  0  0  0
 16 20  2  0  0  0  0
 16 21  1  0  0  0  0
 17 22  2  0  0  0  0
 17 23  1  0  0  0  0
 18 24  1  0  0  0  0
 20 22  1  0  0  0  0
 21 23  2  0  0  0  0
M  END
>  <NScode>
NS-020404466-0000

>  <a_acc>
2

>  <a_don>
2

>  <chiral>
0

>  <opr_nrot>
5

>  <Weight>
357.86499

>  <druglike>
1

>  <lip_druglike>
1

>  <lip_violation>
0

>  <logS>
-4.6652098

$$$$
