NS-022358837-0000
  MOE2022           3D

 26 29  0  0  1  0  0  0  0  0999 V2000
    5.5240    2.6710   -1.0250 C   0  0  0  0  0  0  0  0  0  0  0  0
    4.4000    1.6590   -1.0230 C   0  0  0  0  0  0  0  0  0  0  0  0
    4.5750    0.4010   -1.5950 C   0  0  0  0  0  0  0  0  0  0  0  0
    3.5360   -0.5250   -1.5860 C   0  0  0  0  0  0  0  0  0  0  0  0
    2.3120   -0.2030   -1.0030 C   0  0  0  0  0  0  0  0  0  0  0  0
    1.1810   -1.2100   -0.9670 C   0  0  0  0  0  0  0  0  0  0  0  0
    1.0470   -1.8940    0.4090 C   0  0  3  0  0  0  0  0  0  0  0  0
    2.2570   -2.7760    0.7470 C   0  0  0  0  0  0  0  0  0  0  0  0
    1.7240   -3.9930    1.5040 C   0  0  0  0  0  0  0  0  0  0  0  0
    0.3390   -4.1270    0.8730 C   0  0  0  0  0  0  0  0  0  0  0  0
   -0.1070   -2.7860    0.5060 N   0  0  0  0  0  0  0  0  0  0  0  0
   -1.4530   -2.4590    0.4320 C   0  0  0  0  0  0  0  0  0  0  0  0
   -2.2330   -3.4060    0.3650 O   0  0  0  0  0  0  0  0  0  0  0  0
   -1.9350   -1.0820    0.4280 C   0  0  0  0  0  0  0  0  0  0  0  0
   -3.1410   -0.5850    0.0820 C   0  0  0  0  0  0  0  0  0  0  0  0
   -3.0820    0.7900    0.2810 C   0  0  0  0  0  0  0  0  0  0  0  0
   -1.8910    1.0970    0.7310 N   0  0  0  0  0  0  0  0  0  0  0  0
   -1.1990   -0.0310    0.8280 O   0  0  0  0  0  0  0  0  0  0  0  0
   -4.1660    1.7450    0.0330 C   0  0  0  0  0  0  0  0  0  0  0  0
   -4.0070    3.1150    0.2890 C   0  0  0  0  0  0  0  0  0  0  0  0
   -5.0480    3.9990    0.0510 C   0  0  0  0  0  0  0  0  0  0  0  0
   -6.2380    3.4880   -0.4460 C   0  0  0  0  0  0  0  0  0  0  0  0
   -6.3490    2.1230   -0.6860 C   0  0  0  0  0  0  0  0  0  0  0  0
   -5.3410    1.2860   -0.4520 N   0  0  0  0  0  0  0  0  0  0  0  0
    2.1380    1.0560   -0.4330 C   0  0  0  0  0  0  0  0  0  0  0  0
    3.1770    1.9820   -0.4430 C   0  0  0  0  0  0  0  0  0  0  0  0
  1  2  1  0  0  0  0
  2  3  1  0  0  0  0
  2 26  2  0  0  0  0
  3  4  2  0  0  0  0
  4  5  1  0  0  0  0
  5  6  1  0  0  0  0
  5 25  2  0  0  0  0
  6  7  1  0  0  0  0
  7  8  1  0  0  0  0
  7 11  1  0  0  0  0
  8  9  1  0  0  0  0
  9 10  1  0  0  0  0
 10 11  1  0  0  0  0
 11 12  1  0  0  0  0
 12 13  2  0  0  0  0
 12 14  1  0  0  0  0
 14 15  2  0  0  0  0
 14 18  1  0  0  0  0
 15 16  1  0  0  0  0
 16 17  2  0  0  0  0
 16 19  1  0  0  0  0
 17 18  1  0  0  0  0
 19 20  1  0  0  0  0
 19 24  2  0  0  0  0
 20 21  2  0  0  0  0
 21 22  1  0  0  0  0
 22 23  2  0  0  0  0
 23 24  1  0  0  0  0
 25 26  1  0  0  0  0
M  END
>  <NScode>
NS-022358837-0000

>  <a_acc>
3

>  <a_don>
0

>  <chiral>
1

>  <opr_nrot>
5

>  <Weight>
347.418

>  <druglike>
1

>  <lip_druglike>
1

>  <lip_violation>
0

>  <logS>
-4.1858001

$$$$
