NS-007351647-0000
  MOE2022           3D

 35 39  0  0  0  0  0  0  0  0999 V2000
    2.1800    4.3940   -0.0060 S   0  0  0  0  0  0  0  0  0  0  0  0
    6.7520    2.7770    0.6550 C   0  0  0  0  0  0  0  0  0  0  0  0
    6.6690    4.1940    0.3150 C   0  0  0  0  0  0  0  0  0  0  0  0
    3.0930    4.6840   -1.3610 N   0  0  0  0  0  0  0  0  0  0  0  0
    6.7580    0.0480    1.2490 N   0  0  0  0  0  0  0  0  0  0  0  0
    5.8790    4.6030   -0.7420 N   0  0  0  0  0  0  0  0  0  0  0  0
    5.6090    0.6840    1.1670 C   0  0  0  0  0  0  0  0  0  0  0  0
    5.5920    2.0680    0.8760 C   0  0  0  0  0  0  0  0  0  0  0  0
    7.9910    2.0850    0.7700 C   0  0  0  0  0  0  0  0  0  0  0  0
    7.9460    0.7040    1.0710 C   0  0  0  0  0  0  0  0  0  0  0  0
    1.0280    5.7800    0.0870 C   0  0  0  0  0  0  0  0  0  0  0  0
    3.0290    4.4240    1.1340 O   0  0  0  0  0  0  0  0  0  0  0  0
    1.4420    3.1940   -0.2050 O   0  0  0  0  0  0  0  0  0  0  0  0
    3.8810    3.5410   -1.8940 C   0  0  0  0  0  0  0  0  0  0  0  0
    3.8590    5.9500   -1.4400 C   0  0  0  0  0  0  0  0  0  0  0  0
    5.4210    3.7130   -1.8320 C   0  0  0  0  0  0  0  0  0  0  0  0
    5.1880    5.9060   -0.6490 C   0  0  0  0  0  0  0  0  0  0  0  0
    7.2430    5.0700    0.9530 O   0  0  0  0  0  0  0  0  0  0  0  0
    4.3570   -0.0640    1.3510 C   0  0  0  0  0  0  0  0  0  0  0  0
    1.9820   -1.5190    1.6350 N   0  0  0  0  0  0  0  0  0  0  0  0
    1.2550    6.8420    0.9710 C   0  0  0  0  0  0  0  0  0  0  0  0
   -0.1200    5.7990   -0.7150 C   0  0  0  0  0  0  0  0  0  0  0  0
   -0.7650    7.9160    0.2290 C   0  0  0  0  0  0  0  0  0  0  0  0
   -1.0160    6.8620   -0.6500 C   0  0  0  0  0  0  0  0  0  0  0  0
    0.3640    7.9090    1.0400 C   0  0  0  0  0  0  0  0  0  0  0  0
   -1.6100    8.9940    0.3380 O   0  0  0  0  0  0  0  0  0  0  0  0
    9.2570    2.7020    0.5890 C   0  0  0  0  0  0  0  0  0  0  0  0
    9.1500   -0.0250    1.1830 C   0  0  0  0  0  0  0  0  0  0  0  0
    3.1160   -2.1390    1.3150 C   0  0  0  0  0  0  0  0  0  0  0  0
    1.9890   -0.2010    1.8270 C   0  0  0  0  0  0  0  0  0  0  0  0
    4.3110   -1.4490    1.1660 C   0  0  0  0  0  0  0  0  0  0  0  0
    3.1490    0.5520    1.7030 C   0  0  0  0  0  0  0  0  0  0  0  0
   -2.8560    9.1470   -0.3800 C   0  0  0  0  0  0  0  0  0  0  0  0
   10.4180    1.9690    0.7020 C   0  0  0  0  0  0  0  0  0  0  0  0
   10.3650    0.5940    1.0010 C   0  0  0  0  0  0  0  0  0  0  0  0
  1  4  1  0  0  0  0
  1 11  1  0  0  0  0
  1 12  2  0  0  0  0
  1 13  2  0  0  0  0
  2  3  1  0  0  0  0
  2  8  2  0  0  0  0
  2  9  1  0  0  0  0
  3  6  1  0  0  0  0
  3 18  2  0  0  0  0
  4 14  1  0  0  0  0
  4 15  1  0  0  0  0
  5  7  2  0  0  0  0
  5 10  1  0  0  0  0
  6 16  1  0  0  0  0
  6 17  1  0  0  0  0
  7  8  1  0  0  0  0
  7 19  1  0  0  0  0
  9 10  2  0  0  0  0
  9 27  1  0  0  0  0
 10 28  1  0  0  0  0
 11 21  1  0  0  0  0
 11 22  2  0  0  0  0
 14 16  1  0  0  0  0
 15 17  1  0  0  0  0
 19 31  2  0  0  0  0
 19 32  1  0  0  0  0
 20 29  2  0  0  0  0
 20 30  1  0  0  0  0
 21 25  2  0  0  0  0
 22 24  1  0  0  0  0
 23 24  2  0  0  0  0
 23 25  1  0  0  0  0
 23 26  1  0  0  0  0
 26 33  1  0  0  0  0
 27 34  2  0  0  0  0
 28 35  2  0  0  0  0
 29 31  1  0  0  0  0
 30 32  2  0  0  0  0
 34 35  1  0  0  0  0
M  END
>  <NScode>
NS-007351647-0000

>  <a_acc>
6

>  <a_don>
0

>  <chiral>
0

>  <opr_nrot>
6

>  <Weight>
488.56799

>  <druglike>
1

>  <lip_druglike>
1

>  <lip_violation>
0

>  <logS>
-5.0577202

$$$$
