NS-016082246-0000
  MOE2022           3D

 29 31  0  0  0  0  0  0  0  0999 V2000
   -3.7160   -3.2610   -0.3560 C   0  0  0  0  0  0  0  0  0  0  0  0
   -0.7720    2.0860   -0.0570 C   0  0  0  0  0  0  0  0  0  0  0  0
   -3.5500   -4.5910    0.2010 C   0  0  0  0  0  0  0  0  0  0  0  0
    4.0340    2.0460   -0.8300 C   0  0  0  0  0  0  0  0  0  0  0  0
    0.4450    1.4710   -0.2780 N   0  0  0  0  0  0  0  0  0  0  0  0
   -3.0920   -2.2170    0.2940 N   0  0  0  0  0  0  0  0  0  0  0  0
   -2.6210   -4.8850    1.6430 S   0  0  0  0  0  0  0  0  0  0  0  0
    2.7430    1.5500   -0.9620 C   0  0  0  0  0  0  0  0  0  0  0  0
    4.9810    1.5140   -1.6880 O   0  0  0  0  0  0  0  0  0  0  0  0
   -1.9820    1.2710   -0.1920 C   0  0  0  0  0  0  0  0  0  0  0  0
    6.3600    1.2880   -1.3190 C   0  0  0  0  0  0  0  0  0  0  0  0
    1.7380    2.0310   -0.1230 C   0  0  0  0  0  0  0  0  0  0  0  0
    4.3220    3.0390    0.1250 C   0  0  0  0  0  0  0  0  0  0  0  0
   -3.1430   -0.8480   -0.0480 C   0  0  0  0  0  0  0  0  0  0  0  0
   -4.0670   -5.7700   -0.2910 C   0  0  0  0  0  0  0  0  0  0  0  0
   -1.9820   -0.0970    0.1190 C   0  0  0  0  0  0  0  0  0  0  0  0
   -4.3560   -3.0290   -1.3750 O   0  0  0  0  0  0  0  0  0  0  0  0
   -0.8000    3.2800    0.2050 O   0  0  0  0  0  0  0  0  0  0  0  0
   -2.9450   -6.5760    1.5550 C   0  0  0  0  0  0  0  0  0  0  0  0
   -3.7240   -6.8900    0.4750 C   0  0  0  0  0  0  0  0  0  0  0  0
    3.3090    3.5060    0.9670 C   0  0  0  0  0  0  0  0  0  0  0  0
    7.0160    0.7150   -2.3440 F   0  0  0  0  0  0  0  0  0  0  0  0
    6.4380    0.4260   -0.2850 F   0  0  0  0  0  0  0  0  0  0  0  0
    2.0180    2.9990    0.8480 C   0  0  0  0  0  0  0  0  0  0  0  0
    5.6090    3.5620    0.2120 O   0  0  0  0  0  0  0  0  0  0  0  0
   -3.1730    1.8640   -0.6400 C   0  0  0  0  0  0  0  0  0  0  0  0
   -4.3310    1.1070   -0.7970 C   0  0  0  0  0  0  0  0  0  0  0  0
   -4.3210   -0.2520   -0.5050 C   0  0  0  0  0  0  0  0  0  0  0  0
    6.0180    4.6240    1.1080 C   0  0  0  0  0  0  0  0  0  0  0  0
  1  3  1  0  0  0  0
  1  6  1  0  0  0  0
  1 17  2  0  0  0  0
  2  5  1  0  0  0  0
  2 10  1  0  0  0  0
  2 18  2  0  0  0  0
  3  7  1  0  0  0  0
  3 15  2  0  0  0  0
  4  8  2  0  0  0  0
  4  9  1  0  0  0  0
  4 13  1  0  0  0  0
  5 12  1  0  0  0  0
  6 14  1  0  0  0  0
  7 19  1  0  0  0  0
  8 12  1  0  0  0  0
  9 11  1  0  0  0  0
 10 16  2  0  0  0  0
 10 26  1  0  0  0  0
 11 22  1  0  0  0  0
 11 23  1  0  0  0  0
 12 24  2  0  0  0  0
 13 21  2  0  0  0  0
 13 25  1  0  0  0  0
 14 16  1  0  0  0  0
 14 28  2  0  0  0  0
 15 20  1  0  0  0  0
 19 20  2  0  0  0  0
 21 24  1  0  0  0  0
 25 29  1  0  0  0  0
 26 27  2  0  0  0  0
 27 28  1  0  0  0  0
M  END
>  <NScode>
NS-016082246-0000

>  <a_acc>
4

>  <a_don>
2

>  <chiral>
0

>  <opr_nrot>
7

>  <Weight>
418.41998

>  <druglike>
1

>  <lip_druglike>
1

>  <lip_violation>
0

>  <logS>
-5.3161602

$$$$
