NS-016174299-0000
  MOE2022           3D

 33 36  0  0  1  0  0  0  0  0999 V2000
   -1.3940   -3.5480   -1.4940 S   0  0  0  0  0  0  0  0  0  0  0  0
   -1.2030   -4.8570   -0.2710 C   0  0  0  0  0  0  0  0  0  0  0  0
   -2.0300   -2.2680   -0.6530 N   0  0  0  0  0  0  0  0  0  0  0  0
   -3.6660    1.3260    1.1810 C   0  0  0  0  0  0  0  0  0  0  0  0
   -3.5490    2.5890    0.7870 N   0  0  0  0  0  0  0  0  0  0  0  0
   -0.1160   -3.1890   -2.0000 O   0  0  0  0  0  0  0  0  0  0  0  0
   -2.3570   -3.9790   -2.4500 O   0  0  0  0  0  0  0  0  0  0  0  0
   -0.1380   -4.8710    0.6270 C   0  0  0  0  0  0  0  0  0  0  0  0
   -2.8930    3.1090   -0.3990 C   0  0  3  0  0  0  0  0  0  0  0  0
   -3.1810    0.1440    0.3160 C   0  0  0  0  0  0  0  0  0  0  0  0
   -3.4300   -2.3430   -0.2140 C   0  0  0  0  0  0  0  0  0  0  0  0
   -1.1710   -1.5010    0.2510 C   0  0  0  0  0  0  0  0  0  0  0  0
   -1.3880    3.2410   -0.2200 C   0  0  0  0  0  0  0  0  0  0  0  0
   -4.1610    1.1310    2.2820 O   0  0  0  0  0  0  0  0  0  0  0  0
    1.4030    3.4610    0.0640 C   0  0  0  0  0  0  0  0  0  0  0  0
   -0.8240    3.5740    1.0140 C   0  0  0  0  0  0  0  0  0  0  0  0
   -0.5450    3.0350   -1.3130 C   0  0  0  0  0  0  0  0  0  0  0  0
    0.8340    3.1410   -1.1720 C   0  0  0  0  0  0  0  0  0  0  0  0
    0.5550    3.6810    1.1540 C   0  0  0  0  0  0  0  0  0  0  0  0
   -3.8510   -1.1870    0.7080 C   0  0  0  0  0  0  0  0  0  0  0  0
   -1.6460   -0.0450    0.3750 C   0  0  0  0  0  0  0  0  0  0  0  0
    2.8520    3.5620    0.2150 C   0  0  0  0  0  0  0  0  0  0  0  0
    0.7770   -3.8770    0.6210 F   0  0  0  0  0  0  0  0  0  0  0  0
   -2.1190   -5.9140   -0.2040 C   0  0  0  0  0  0  0  0  0  0  0  0
   -3.5170    4.4520   -0.7750 C   0  0  0  0  0  0  0  0  0  0  0  0
    0.0330   -5.8780    1.5700 C   0  0  0  0  0  0  0  0  0  0  0  0
    3.4340    4.7070    0.7710 C   0  0  0  0  0  0  0  0  0  0  0  0
    3.6850    2.5130   -0.1910 C   0  0  0  0  0  0  0  0  0  0  0  0
   -1.9650   -6.9320    0.7370 C   0  0  0  0  0  0  0  0  0  0  0  0
    4.8140    4.8010    0.9150 C   0  0  0  0  0  0  0  0  0  0  0  0
    5.0650    2.6070   -0.0470 C   0  0  0  0  0  0  0  0  0  0  0  0
   -0.8910   -6.9160    1.6240 C   0  0  0  0  0  0  0  0  0  0  0  0
    5.6310    3.7510    0.5070 C   0  0  0  0  0  0  0  0  0  0  0  0
  1  2  1  0  0  0  0
  1  3  1  0  0  0  0
  1  6  2  0  0  0  0
  1  7  2  0  0  0  0
  2  8  2  0  0  0  0
  2 24  1  0  0  0  0
  3 11  1  0  0  0  0
  3 12  1  0  0  0  0
  4  5  1  0  0  0  0
  4 10  1  0  0  0  0
  4 14  2  0  0  0  0
  5  9  1  0  0  0  0
  8 23  1  0  0  0  0
  8 26  1  0  0  0  0
  9 13  1  0  0  0  0
  9 25  1  0  0  0  0
 10 20  1  0  0  0  0
 10 21  1  0  0  0  0
 11 20  1  0  0  0  0
 12 21  1  0  0  0  0
 13 16  1  0  0  0  0
 13 17  2  0  0  0  0
 15 18  2  0  0  0  0
 15 19  1  0  0  0  0
 15 22  1  0  0  0  0
 16 19  2  0  0  0  0
 17 18  1  0  0  0  0
 22 27  2  0  0  0  0
 22 28  1  0  0  0  0
 24 29  2  0  0  0  0
 26 32  2  0  0  0  0
 27 30  1  0  0  0  0
 28 31  2  0  0  0  0
 29 32  1  0  0  0  0
 30 33  2  0  0  0  0
 31 33  1  0  0  0  0
M  END
>  <NScode>
NS-016174299-0000

>  <a_acc>
3

>  <a_don>
1

>  <chiral>
1

>  <opr_nrot>
7

>  <Weight>
466.577

>  <druglike>
0

>  <lip_druglike>
1

>  <lip_violation>
0

>  <logS>
-6.5963402

$$$$
