NS-015313334-0000
  MOE2022           3D

 36 39  0  0  0  0  0  0  0  0999 V2000
    5.5300    0.5350   -1.0560 C   0  0  0  0  0  0  0  0  0  0  0  0
    5.9230    1.6430   -0.3330 N   0  0  0  0  0  0  0  0  0  0  0  0
   -2.3630   -2.3700    0.2060 C   0  0  0  0  0  0  0  0  0  0  0  0
    7.0510    2.4890   -0.5020 C   0  0  0  0  0  0  0  0  0  0  0  0
   -2.0250   -2.7580    1.4760 N   0  0  0  0  0  0  0  0  0  0  0  0
    0.5110   -2.8380    1.7480 C   0  0  0  0  0  0  0  0  0  0  0  0
    4.3380   -0.1860   -0.6070 C   0  0  0  0  0  0  0  0  0  0  0  0
   -3.5390   -1.5210   -0.0230 C   0  0  0  0  0  0  0  0  0  0  0  0
    0.8740   -2.2830    0.5460 N   0  0  0  0  0  0  0  0  0  0  0  0
    6.1630    0.2190   -2.0570 O   0  0  0  0  0  0  0  0  0  0  0  0
   -5.7890    0.1110   -0.5280 C   0  0  0  0  0  0  0  0  0  0  0  0
   -1.6280   -2.7640   -0.6960 O   0  0  0  0  0  0  0  0  0  0  0  0
    6.9650    3.7770    0.0480 C   0  0  0  0  0  0  0  0  0  0  0  0
    1.2130   -2.7380    2.7340 O   0  0  0  0  0  0  0  0  0  0  0  0
   -4.0140   -1.3310   -1.3290 C   0  0  0  0  0  0  0  0  0  0  0  0
   -4.2130   -0.8760    1.0290 C   0  0  0  0  0  0  0  0  0  0  0  0
   -5.3210   -0.0750    0.7780 C   0  0  0  0  0  0  0  0  0  0  0  0
   -5.1210   -0.5290   -1.5770 C   0  0  0  0  0  0  0  0  0  0  0  0
   -0.8200   -3.5780    1.7720 C   0  0  0  0  0  0  0  0  0  0  0  0
    3.5680   -0.9100   -1.5320 C   0  0  0  0  0  0  0  0  0  0  0  0
    3.9360   -0.1780    0.7420 C   0  0  0  0  0  0  0  0  0  0  0  0
   -6.9470    0.9590   -0.7900 C   0  0  0  0  0  0  0  0  0  0  0  0
    2.0450   -1.5740    0.2100 C   0  0  0  0  0  0  0  0  0  0  0  0
    2.7960   -0.8600    1.1490 C   0  0  0  0  0  0  0  0  0  0  0  0
    2.4270   -1.5940   -1.1320 C   0  0  0  0  0  0  0  0  0  0  0  0
    5.7900    4.1350    0.7120 O   0  0  0  0  0  0  0  0  0  0  0  0
    8.2200    2.0840   -1.1510 C   0  0  0  0  0  0  0  0  0  0  0  0
    8.0350    4.6630   -0.0710 C   0  0  0  0  0  0  0  0  0  0  0  0
   -8.0180    0.4880   -1.5600 C   0  0  0  0  0  0  0  0  0  0  0  0
   -7.0060    2.2620   -0.2800 C   0  0  0  0  0  0  0  0  0  0  0  0
    5.5080    5.4570    1.2280 C   0  0  0  0  0  0  0  0  0  0  0  0
    9.2860    2.9730   -1.2670 C   0  0  0  0  0  0  0  0  0  0  0  0
    9.1940    4.2580   -0.7320 C   0  0  0  0  0  0  0  0  0  0  0  0
   -9.1190    1.2990   -1.8120 C   0  0  0  0  0  0  0  0  0  0  0  0
   -8.1080    3.0720   -0.5310 C   0  0  0  0  0  0  0  0  0  0  0  0
   -9.1650    2.5920   -1.2990 C   0  0  0  0  0  0  0  0  0  0  0  0
  1  2  1  0  0  0  0
  1  7  1  0  0  0  0
  1 10  2  0  0  0  0
  2  4  1  0  0  0  0
  3  5  1  0  0  0  0
  3  8  1  0  0  0  0
  3 12  2  0  0  0  0
  4 13  2  0  0  0  0
  4 27  1  0  0  0  0
  5 19  1  0  0  0  0
  6  9  1  0  0  0  0
  6 14  2  0  0  0  0
  6 19  1  0  0  0  0
  7 20  1  0  0  0  0
  7 21  2  0  0  0  0
  8 15  1  0  0  0  0
  8 16  2  0  0  0  0
  9 23  1  0  0  0  0
 11 17  2  0  0  0  0
 11 18  1  0  0  0  0
 11 22  1  0  0  0  0
 13 26  1  0  0  0  0
 13 28  1  0  0  0  0
 15 18  2  0  0  0  0
 16 17  1  0  0  0  0
 20 25  2  0  0  0  0
 21 24  1  0  0  0  0
 22 29  2  0  0  0  0
 22 30  1  0  0  0  0
 23 24  2  0  0  0  0
 23 25  1  0  0  0  0
 26 31  1  0  0  0  0
 27 32  2  0  0  0  0
 28 33  2  0  0  0  0
 29 34  1  0  0  0  0
 30 35  2  0  0  0  0
 32 33  1  0  0  0  0
 34 36  2  0  0  0  0
 35 36  1  0  0  0  0
M  END
>  <NScode>
NS-015313334-0000

>  <a_acc>
4

>  <a_don>
3

>  <chiral>
0

>  <opr_nrot>
8

>  <Weight>
479.53598

>  <druglike>
0

>  <lip_druglike>
1

>  <lip_violation>
0

>  <logS>
-7.9741902

$$$$
