NS-007138378-0000
  MOE2022           3D

 31 34  0  0  0  0  0  0  0  0999 V2000
   -0.3250   -4.5340   -1.4130 Cl  0  0  0  0  0  0  0  0  0  0  0  0
   -0.6400   -2.9400   -0.8110 C   0  0  0  0  0  0  0  0  0  0  0  0
   -1.9070   -2.6890   -0.2730 C   0  0  0  0  0  0  0  0  0  0  0  0
   -2.2180   -1.4360    0.2390 C   0  0  0  0  0  0  0  0  0  0  0  0
   -1.2530   -0.4300    0.2130 C   0  0  0  0  0  0  0  0  0  0  0  0
   -1.4890    0.8790    0.6870 N   0  0  0  0  0  0  0  0  0  0  0  0
   -2.3680    1.3180    1.6370 C   0  0  0  0  0  0  0  0  0  0  0  0
   -3.0700    0.5350    2.2470 O   0  0  0  0  0  0  0  0  0  0  0  0
   -2.3930    2.8160    1.8920 C   0  0  0  0  0  0  0  0  0  0  0  0
   -2.8570    3.6140    0.7480 O   0  0  0  0  0  0  0  0  0  0  0  0
   -2.2750    3.9200   -0.4790 C   0  0  0  0  0  0  0  0  0  0  0  0
   -3.1500    4.4170   -1.4210 C   0  0  0  0  0  0  0  0  0  0  0  0
   -2.6970    4.7430   -2.7120 C   0  0  0  0  0  0  0  0  0  0  0  0
   -1.3750    4.5690   -3.0490 C   0  0  0  0  0  0  0  0  0  0  0  0
   -0.4490    4.0660   -2.1010 C   0  0  0  0  0  0  0  0  0  0  0  0
    0.9130    3.8710   -2.4320 C   0  0  0  0  0  0  0  0  0  0  0  0
    1.7660    3.3980   -1.4710 C   0  0  0  0  0  0  0  0  0  0  0  0
    1.2830    3.1160   -0.1760 C   0  0  0  0  0  0  0  0  0  0  0  0
    0.0270    3.2750    0.1440 N   0  0  0  0  0  0  0  0  0  0  0  0
   -0.8860    3.7460   -0.7890 C   0  0  0  0  0  0  0  0  0  0  0  0
    0.0070   -0.6690   -0.3280 C   0  0  0  0  0  0  0  0  0  0  0  0
    0.3310   -1.9260   -0.8430 C   0  0  0  0  0  0  0  0  0  0  0  0
    1.9680   -2.2120   -1.5200 S   0  0  0  0  0  0  0  0  0  0  0  0
    1.8480   -2.7160   -2.8420 O   0  0  0  0  0  0  0  0  0  0  0  0
    2.7310   -1.0190   -1.3660 O   0  0  0  0  0  0  0  0  0  0  0  0
    2.6400   -3.3740   -0.5550 N   0  0  0  0  0  0  0  0  0  0  0  0
    2.8260   -3.0870    0.8860 C   0  0  0  0  0  0  0  0  0  0  0  0
    4.3120   -3.0600    1.3070 C   0  0  0  0  0  0  0  0  0  0  0  0
    4.9930   -4.2890    1.0280 O   0  0  0  0  0  0  0  0  0  0  0  0
    4.4760   -5.0370   -0.0820 C   0  0  0  0  0  0  0  0  0  0  0  0
    3.7580   -4.1530   -1.1250 C   0  0  0  0  0  0  0  0  0  0  0  0
  1  2  1  0  0  0  0
  2  3  1  0  0  0  0
  2 22  2  0  0  0  0
  3  4  2  0  0  0  0
  4  5  1  0  0  0  0
  5  6  1  0  0  0  0
  5 21  2  0  0  0  0
  6  7  1  0  0  0  0
  7  8  2  0  0  0  0
  7  9  1  0  0  0  0
  9 10  1  0  0  0  0
 10 11  1  0  0  0  0
 11 12  1  0  0  0  0
 11 20  2  0  0  0  0
 12 13  2  0  0  0  0
 13 14  1  0  0  0  0
 14 15  2  0  0  0  0
 15 16  1  0  0  0  0
 15 20  1  0  0  0  0
 16 17  2  0  0  0  0
 17 18  1  0  0  0  0
 18 19  2  0  0  0  0
 19 20  1  0  0  0  0
 21 22  1  0  0  0  0
 22 23  1  0  0  0  0
 23 24  2  0  0  0  0
 23 25  2  0  0  0  0
 23 26  1  0  0  0  0
 26 27  1  0  0  0  0
 26 31  1  0  0  0  0
 27 28  1  0  0  0  0
 28 29  1  0  0  0  0
 29 30  1  0  0  0  0
 30 31  1  0  0  0  0
M  END
>  <NScode>
NS-007138378-0000

>  <a_acc>
6

>  <a_don>
1

>  <chiral>
0

>  <opr_nrot>
7

>  <Weight>
461.92599

>  <druglike>
1

>  <lip_druglike>
1

>  <lip_violation>
0

>  <logS>
-4.9595599

$$$$
