NS-008300926-0000
  MOE2022           3D

 27 29  0  0  0  0  0  0  0  0999 V2000
    3.0080    3.6830    0.8880 N   0  0  0  0  0  0  0  0  0  0  0  0
    4.3980    3.5090    1.0870 C   0  0  0  0  0  0  0  0  0  0  0  0
    2.5000    4.9390    0.5680 C   0  0  0  0  0  0  0  0  0  0  0  0
    3.4540    5.9920    0.4690 C   0  0  0  0  0  0  0  0  0  0  0  0
    5.2430    4.4960    0.9910 N   0  0  0  0  0  0  0  0  0  0  0  0
    4.7890    5.7670    0.6800 C   0  0  0  0  0  0  0  0  0  0  0  0
    2.1160    2.5780    1.0070 C   0  0  0  0  0  0  0  0  0  0  0  0
    1.7790    1.8060   -0.1170 C   0  0  0  0  0  0  0  0  0  0  0  0
    3.1320    7.6550    0.0850 S   0  0  0  0  0  0  0  0  0  0  0  0
    4.9240    1.8880    1.4500 S   0  0  0  0  0  0  0  0  0  0  0  0
    7.5150    1.0550    0.6430 C   0  0  0  0  0  0  0  0  0  0  0  0
    5.5620    6.9290    0.5370 C   0  0  0  0  0  0  0  0  0  0  0  0
    1.2830    5.0660    0.3870 O   0  0  0  0  0  0  0  0  0  0  0  0
    4.8130    8.0280    0.2170 C   0  0  0  0  0  0  0  0  0  0  0  0
    7.7500    1.4130   -0.6430 N   0  0  0  0  0  0  0  0  0  0  0  0
    6.7570    1.9770    1.5840 C   0  0  0  0  0  0  0  0  0  0  0  0
    0.8920    0.7340    0.0590 C   0  0  0  0  0  0  0  0  0  0  0  0
    7.9000   -0.0350    1.0630 O   0  0  0  0  0  0  0  0  0  0  0  0
    1.6010    2.3020    2.2730 C   0  0  0  0  0  0  0  0  0  0  0  0
    2.3530    2.1570   -1.4860 C   0  0  0  0  0  0  0  0  0  0  0  0
    0.7340    1.2310    2.4300 C   0  0  0  0  0  0  0  0  0  0  0  0
    8.5110    0.5050   -1.5180 C   0  0  0  0  0  0  0  0  0  0  0  0
    7.2680    2.6660   -1.2440 C   0  0  0  0  0  0  0  0  0  0  0  0
    0.3830    0.4540    1.3300 C   0  0  0  0  0  0  0  0  0  0  0  0
    0.4540   -0.1480   -1.0950 C   0  0  0  0  0  0  0  0  0  0  0  0
   10.0270    0.6420   -1.3430 C   0  0  0  0  0  0  0  0  0  0  0  0
    8.2350    3.8400   -1.0660 C   0  0  0  0  0  0  0  0  0  0  0  0
  1  2  1  0  0  0  0
  1  3  1  0  0  0  0
  1  7  1  0  0  0  0
  2  5  2  0  0  0  0
  2 10  1  0  0  0  0
  3  4  1  0  0  0  0
  3 13  2  0  0  0  0
  4  6  2  0  0  0  0
  4  9  1  0  0  0  0
  5  6  1  0  0  0  0
  6 12  1  0  0  0  0
  7  8  2  0  0  0  0
  7 19  1  0  0  0  0
  8 17  1  0  0  0  0
  8 20  1  0  0  0  0
  9 14  1  0  0  0  0
 10 16  1  0  0  0  0
 11 15  1  0  0  0  0
 11 16  1  0  0  0  0
 11 18  2  0  0  0  0
 12 14  2  0  0  0  0
 15 22  1  0  0  0  0
 15 23  1  0  0  0  0
 17 24  2  0  0  0  0
 17 25  1  0  0  0  0
 19 21  2  0  0  0  0
 21 24  1  0  0  0  0
 22 26  1  0  0  0  0
 23 27  1  0  0  0  0
M  END
>  <NScode>
NS-008300926-0000

>  <a_acc>
3

>  <a_don>
0

>  <chiral>
0

>  <opr_nrot>
6

>  <Weight>
401.55499

>  <druglike>
1

>  <lip_druglike>
1

>  <lip_violation>
0

>  <logS>
-6.1192198

$$$$
