NS-050155196-0001
  MOE2022           3D

 23 25  0  0  0  0  0  0  0  0999 V2000
    1.0240   -3.4280   -2.3300 C   0  0  0  0  0  0  0  0  0  0  0  0
    1.0000   -3.9570   -0.9070 C   0  0  0  0  0  0  0  0  0  0  0  0
    2.0650   -4.7300   -0.4510 C   0  0  0  0  0  0  0  0  0  0  0  0
    2.0630   -5.2430    0.8430 C   0  0  0  0  0  0  0  0  0  0  0  0
    0.9890   -4.9940    1.6900 C   0  0  0  0  0  0  0  0  0  0  0  0
   -0.0800   -4.2270    1.2440 C   0  0  0  0  0  0  0  0  0  0  0  0
   -0.0860   -3.6890   -0.0510 C   0  0  0  0  0  0  0  0  0  0  0  0
   -1.2160   -2.8560   -0.4780 C   0  0  0  0  0  0  0  0  0  0  0  0
   -1.9220   -3.1490   -1.4380 O   0  0  0  0  0  0  0  0  0  0  0  0
   -1.5120   -1.6810    0.2040 N   0  0  0  0  0  0  0  0  0  0  0  0
   -2.6570   -0.8490   -0.1840 C   0  0  0  0  0  0  0  0  0  0  0  0
   -2.1900    0.4100   -0.9290 C   0  0  0  0  0  0  0  0  0  0  0  0
   -1.1490    1.2190   -0.1280 C   0  0  0  0  0  0  0  0  0  0  0  0
   -0.6490    2.4010   -0.9800 C   0  0  0  0  0  0  0  0  0  0  0  0
    0.3380    3.3070   -0.2650 C   0  0  0  0  0  0  0  0  0  0  0  0
   -0.0070    4.2750    0.6540 C   0  0  0  0  0  0  0  0  0  0  0  0
    0.9970    5.0420    1.2550 C   0  0  0  0  0  0  0  0  0  0  0  0
    0.6720    5.9900    2.1490 N   0  0  0  0  0  0  0  0  0  0  0  0
    2.3400    4.8250    0.9270 C   0  0  0  0  0  0  0  0  0  0  0  0
    2.6540    3.8500    0.0070 C   0  0  0  0  0  0  0  0  0  0  0  0
    1.6560    3.1180   -0.5640 N   0  3  0  0  0  0  0  0  0  0  0  0
   -0.0070    0.2760    0.3150 C   0  0  0  0  0  0  0  0  0  0  0  0
   -0.5270   -0.9800    1.0330 C   0  0  0  0  0  0  0  0  0  0  0  0
  1  2  1  0  0  0  0
  2  3  1  0  0  0  0
  2  7  2  0  0  0  0
  3  4  2  0  0  0  0
  4  5  1  0  0  0  0
  5  6  2  0  0  0  0
  6  7  1  0  0  0  0
  7  8  1  0  0  0  0
  8  9  2  0  0  0  0
  8 10  1  0  0  0  0
 10 11  1  0  0  0  0
 10 23  1  0  0  0  0
 11 12  1  0  0  0  0
 12 13  1  0  0  0  0
 13 14  1  0  0  0  0
 13 22  1  0  0  0  0
 14 15  1  0  0  0  0
 15 16  1  0  0  0  0
 15 21  2  0  0  0  0
 16 17  2  0  0  0  0
 17 18  1  0  0  0  0
 17 19  1  0  0  0  0
 19 20  2  0  0  0  0
 20 21  1  0  0  0  0
 22 23  1  0  0  0  0
M  CHG  1  21   1
M  END
>  <NScode>
NS-050155196-0001

>  <a_acc>
2

>  <a_don>
1

>  <chiral>
0

>  <opr_nrot>
5

>  <Weight>
309.41299

>  <druglike>
1

>  <lip_druglike>
1

>  <lip_violation>
0

>  <logS>
-2.9726801

$$$$
