NS-016960959-0000
  MOE2022           3D

 25 28  0  0  0  0  0  0  0  0999 V2000
   -2.8730   -0.2540    0.0410 N   0  0  0  0  0  0  0  0  0  0  0  0
   -3.7520    0.7610   -0.1330 C   0  0  0  0  0  0  0  0  0  0  0  0
   -3.0920    1.8190   -0.5110 N   0  0  0  0  0  0  0  0  0  0  0  0
   -1.6670    0.2270   -0.2750 C   0  0  0  0  0  0  0  0  0  0  0  0
   -1.7690    1.4860   -0.6080 N   0  0  0  0  0  0  0  0  0  0  0  0
    5.0010   -1.1710   -0.8580 C   0  0  0  0  0  0  0  0  0  0  0  0
    4.6000   -0.3810    0.2260 C   0  0  0  0  0  0  0  0  0  0  0  0
   -5.1820    0.6510    0.0940 C   0  0  0  0  0  0  0  0  0  0  0  0
    4.1060   -1.4130   -1.9060 C   0  0  0  0  0  0  0  0  0  0  0  0
   -0.2240   -0.7510   -0.2200 S   0  0  0  0  0  0  0  0  0  0  0  0
    6.2850   -1.7210   -0.8970 O   0  0  0  0  0  0  0  0  0  0  0  0
    3.3150    0.1510    0.2800 C   0  0  0  0  0  0  0  0  0  0  0  0
    5.4680   -0.1010    1.2690 O   0  0  0  0  0  0  0  0  0  0  0  0
    2.8180   -0.8720   -1.8520 C   0  0  0  0  0  0  0  0  0  0  0  0
    2.4210   -0.0900   -0.7650 C   0  0  0  0  0  0  0  0  0  0  0  0
   -7.2450   -0.5270   -0.2450 N   0  0  0  0  0  0  0  0  0  0  0  0
   -3.1440   -1.6130    0.5100 C   0  0  0  0  0  0  0  0  0  0  0  0
    1.0210    0.4860   -0.7170 C   0  0  0  0  0  0  0  0  0  0  0  0
    4.5620   -2.3770   -3.2730 Cl  0  0  0  0  0  0  0  0  0  0  0  0
   -5.9400   -0.3880   -0.4680 C   0  0  0  0  0  0  0  0  0  0  0  0
   -5.8500    1.5930    0.8790 C   0  0  0  0  0  0  0  0  0  0  0  0
    7.0690   -1.7050    0.3200 C   0  0  0  0  0  0  0  0  0  0  0  0
   -7.8810    0.3620    0.5190 C   0  0  0  0  0  0  0  0  0  0  0  0
    6.8740   -0.3940    1.0830 C   0  0  0  0  0  0  0  0  0  0  0  0
   -7.2120    1.4390    1.0920 C   0  0  0  0  0  0  0  0  0  0  0  0
  1  2  1  0  0  0  0
  1  4  1  0  0  0  0
  1 17  1  0  0  0  0
  2  3  2  0  0  0  0
  2  8  1  0  0  0  0
  3  5  1  0  0  0  0
  4  5  2  0  0  0  0
  4 10  1  0  0  0  0
  6  7  2  0  0  0  0
  6  9  1  0  0  0  0
  6 11  1  0  0  0  0
  7 12  1  0  0  0  0
  7 13  1  0  0  0  0
  8 20  2  0  0  0  0
  8 21  1  0  0  0  0
  9 14  2  0  0  0  0
  9 19  1  0  0  0  0
 10 18  1  0  0  0  0
 11 22  1  0  0  0  0
 12 15  2  0  0  0  0
 13 24  1  0  0  0  0
 14 15  1  0  0  0  0
 15 18  1  0  0  0  0
 16 20  1  0  0  0  0
 16 23  2  0  0  0  0
 21 25  2  0  0  0  0
 22 24  1  0  0  0  0
 23 25  1  0  0  0  0
M  END
>  <NScode>
NS-016960959-0000

>  <a_acc>
5

>  <a_don>
0

>  <chiral>
0

>  <opr_nrot>
5

>  <Weight>
374.85199

>  <druglike>
1

>  <lip_druglike>
1

>  <lip_violation>
0

>  <logS>
-5.6798401

$$$$
