NS-018442165-0000
  MOE2022           3D

 26 28  0  0  0  0  0  0  0  0999 V2000
    5.7550    0.0610   -0.0250 C   0  0  0  0  0  0  0  0  0  0  0  0
    6.8220    0.9820    0.3350 C   0  0  0  0  0  0  0  0  0  0  0  0
   -6.5630    0.9170   -0.2120 C   0  0  0  0  0  0  0  0  0  0  0  0
    4.4730    0.3920    0.3640 N   0  0  0  0  0  0  0  0  0  0  0  0
    8.4450    0.7230   -0.2300 S   0  0  0  0  0  0  0  0  0  0  0  0
   -7.9040    1.8630   -0.7860 S   0  0  0  0  0  0  0  0  0  0  0  0
   -5.1960    1.2790   -0.5240 C   0  0  0  0  0  0  0  0  0  0  0  0
   -1.5200   -0.0350    0.0010 C   0  0  0  0  0  0  0  0  0  0  0  0
   -0.2630    0.2640   -0.4510 N   0  0  0  0  0  0  0  0  0  0  0  0
    3.3010   -0.3860    0.2060 C   0  0  0  0  0  0  0  0  0  0  0  0
    6.7570    2.1210    1.1150 C   0  0  0  0  0  0  0  0  0  0  0  0
    5.9280   -0.9690   -0.6650 O   0  0  0  0  0  0  0  0  0  0  0  0
   -7.0120   -0.1560    0.5340 C   0  0  0  0  0  0  0  0  0  0  0  0
    2.1070    0.2890   -0.0430 C   0  0  0  0  0  0  0  0  0  0  0  0
   -9.0320    0.8080   -0.0220 C   0  0  0  0  0  0  0  0  0  0  0  0
    9.0000    2.1390    0.5790 C   0  0  0  0  0  0  0  0  0  0  0  0
    0.9310   -0.4480   -0.1720 C   0  0  0  0  0  0  0  0  0  0  0  0
    7.9900    2.7720    1.2490 C   0  0  0  0  0  0  0  0  0  0  0  0
   -8.4060   -0.2150    0.6380 C   0  0  0  0  0  0  0  0  0  0  0  0
   -1.7100   -0.9570    0.7650 O   0  0  0  0  0  0  0  0  0  0  0  0
   -4.9270    2.2630   -1.1840 O   0  0  0  0  0  0  0  0  0  0  0  0
   -4.0480    0.4220   -0.0270 C   0  0  0  0  0  0  0  0  0  0  0  0
   -2.6370    0.8600   -0.4820 C   0  0  0  0  0  0  0  0  0  0  0  0
    2.1410   -2.5020    0.1930 C   0  0  0  0  0  0  0  0  0  0  0  0
    3.3240   -1.7800    0.3300 C   0  0  0  0  0  0  0  0  0  0  0  0
    0.9410   -1.8430   -0.0600 C   0  0  0  0  0  0  0  0  0  0  0  0
  1  2  1  0  0  0  0
  1  4  1  0  0  0  0
  1 12  2  0  0  0  0
  2  5  1  0  0  0  0
  2 11  2  0  0  0  0
  3  6  1  0  0  0  0
  3  7  1  0  0  0  0
  3 13  2  0  0  0  0
  4 10  1  0  0  0  0
  5 16  1  0  0  0  0
  6 15  1  0  0  0  0
  7 21  2  0  0  0  0
  7 22  1  0  0  0  0
  8  9  1  0  0  0  0
  8 20  2  0  0  0  0
  8 23  1  0  0  0  0
  9 17  1  0  0  0  0
 10 14  2  0  0  0  0
 10 25  1  0  0  0  0
 11 18  1  0  0  0  0
 13 19  1  0  0  0  0
 14 17  1  0  0  0  0
 15 19  2  0  0  0  0
 16 18  2  0  0  0  0
 17 26  2  0  0  0  0
 22 23  1  0  0  0  0
 24 25  2  0  0  0  0
 24 26  1  0  0  0  0
M  END
>  <NScode>
NS-018442165-0000

>  <a_acc>
3

>  <a_don>
2

>  <chiral>
0

>  <opr_nrot>
7

>  <Weight>
384.48001

>  <druglike>
1

>  <lip_druglike>
1

>  <lip_violation>
0

>  <logS>
-5.03339

$$$$
