NS-022255973-0001
  MOE2022           3D

 15 16  0  0  0  0  0  0  0  0999 V2000
    5.8830   -0.4030    0.2950 C   0  0  0  0  0  0  0  0  0  0  0  0
    7.4490   -1.2680    0.5600 S   0  0  0  0  0  0  0  0  0  0  0  0
    2.2040    1.4830   -0.3140 N   0  0  0  0  0  0  0  0  0  0  0  0
    3.4470    0.8420   -0.1110 C   0  0  0  0  0  0  0  0  0  0  0  0
    5.8130    0.9990    0.3170 C   0  0  0  0  0  0  0  0  0  0  0  0
    4.7390   -1.1730    0.0660 C   0  0  0  0  0  0  0  0  0  0  0  0
    4.5840    1.6190    0.1100 C   0  0  0  0  0  0  0  0  0  0  0  0
    3.5100   -0.5560   -0.1380 C   0  0  0  0  0  0  0  0  0  0  0  0
    1.0190    0.8240   -0.2930 C   0  0  0  0  0  0  0  0  0  0  0  0
    6.9690   -2.2500    1.5940 O   0  0  0  0  0  0  0  0  0  0  0  0
    7.3720   -2.2030   -0.6160 O   0  5  0  0  0  0  0  0  0  0  0  0
    0.0240    1.4570   -0.5620 O   0  0  0  0  0  0  0  0  0  0  0  0
    2.2660   -1.3720   -0.4180 C   0  0  0  0  0  0  0  0  0  0  0  0
    7.3390    2.0810    0.6200 Br  0  0  0  0  0  0  0  0  0  0  0  0
    1.0140   -0.6380    0.0820 C   0  0  0  0  0  0  0  0  0  0  0  0
  1  2  1  0  0  0  0
  1  5  2  0  0  0  0
  1  6  1  0  0  0  0
  2 10  2  0  0  0  0
  2 11  1  0  0  0  0
  3  4  1  0  0  0  0
  3  9  1  0  0  0  0
  4  7  2  0  0  0  0
  4  8  1  0  0  0  0
  5  7  1  0  0  0  0
  5 14  1  0  0  0  0
  6  8  2  0  0  0  0
  8 13  1  0  0  0  0
  9 12  2  0  0  0  0
  9 15  1  0  0  0  0
 13 15  1  0  0  0  0
M  CHG  1  11  -1
M  END
>  <NScode>
NS-022255973-0001

>  <a_acc>
1

>  <a_don>
1

>  <chiral>
0

>  <opr_nrot>
1

>  <Weight>
289.129

>  <druglike>
1

>  <lip_druglike>
1

>  <lip_violation>
0

>  <logS>
-3.01422

$$$$
