NS-023408414-0000
  MOE2022           3D

 24 27  0  0  1  0  0  0  0  0999 V2000
   -1.1410    2.0250   -1.1870 O   0  0  0  0  0  0  0  0  0  0  0  0
   -0.8330    1.8060   -0.0170 C   0  0  0  0  0  0  0  0  0  0  0  0
   -1.7450    1.1480    0.7550 N   0  0  0  0  0  0  0  0  0  0  0  0
   -2.8540    0.3940    0.1740 C   0  0  0  0  0  0  0  0  0  0  0  0
   -2.4540   -1.0160   -0.2090 C   0  0  0  0  0  0  0  0  0  0  0  0
   -1.7650   -1.3830   -1.3590 C   0  0  0  0  0  0  0  0  0  0  0  0
   -1.5980   -2.7220   -1.3040 C   0  0  0  0  0  0  0  0  0  0  0  0
   -2.1740   -3.1170   -0.1460 N   0  0  0  0  0  0  0  0  0  0  0  0
   -2.7040   -2.0640    0.5330 N   0  0  0  0  0  0  0  0  0  0  0  0
   -2.2460   -4.4900    0.3670 C   0  0  0  0  0  0  0  0  0  0  0  0
   -0.8870   -5.1360    0.6540 C   0  0  0  0  0  0  0  0  0  0  0  0
   -1.0690   -6.6390    0.4280 C   0  0  0  0  0  0  0  0  0  0  0  0
   -2.0290   -6.6840   -0.7700 C   0  0  0  0  0  0  0  0  0  0  0  0
   -2.9690   -5.4890   -0.5490 C   0  0  0  0  0  0  0  0  0  0  0  0
    0.4340    2.2080    0.5910 C   0  0  0  0  0  0  0  0  0  0  0  0
    1.4450    2.8790   -0.0130 C   0  0  0  0  0  0  0  0  0  0  0  0
    2.3830    3.0230    0.9140 N   0  0  0  0  0  0  0  0  0  0  0  0
    1.9830    2.4620    2.0680 N   0  0  0  0  0  0  0  0  0  0  0  0
    0.7900    1.9590    1.8830 N   0  0  0  0  0  0  0  0  0  0  0  0
    3.6790    3.6860    0.7730 C   0  0  3  0  0  0  0  0  0  0  0  0
    3.5680    5.1820    0.4710 C   0  0  0  0  0  0  0  0  0  0  0  0
    4.1560    5.3670   -0.9320 C   0  0  0  0  0  0  0  0  0  0  0  0
    4.2310    4.0560   -1.4820 O   0  0  0  0  0  0  0  0  0  0  0  0
    4.4800    3.1600   -0.4110 C   0  0  0  0  0  0  0  0  0  0  0  0
  1  2  2  0  0  0  0
  2  3  1  0  0  0  0
  2 15  1  0  0  0  0
  3  4  1  0  0  0  0
  4  5  1  0  0  0  0
  5  6  1  0  0  0  0
  5  9  2  0  0  0  0
  6  7  2  0  0  0  0
  7  8  1  0  0  0  0
  8  9  1  0  0  0  0
  8 10  1  0  0  0  0
 10 11  1  0  0  0  0
 10 14  1  0  0  0  0
 11 12  1  0  0  0  0
 12 13  1  0  0  0  0
 13 14  1  0  0  0  0
 15 16  2  0  0  0  0
 15 19  1  0  0  0  0
 16 17  1  0  0  0  0
 17 18  1  0  0  0  0
 17 20  1  0  0  0  0
 18 19  2  0  0  0  0
 20 21  1  0  0  0  0
 20 24  1  0  0  0  0
 21 22  1  0  0  0  0
 22 23  1  0  0  0  0
 23 24  1  0  0  0  0
M  END
>  <NScode>
NS-023408414-0000

>  <a_acc>
5

>  <a_don>
1

>  <chiral>
1

>  <opr_nrot>
7

>  <Weight>
330.392

>  <druglike>
1

>  <lip_druglike>
1

>  <lip_violation>
0

>  <logS>
-1.23428

$$$$
