NS-042258780-0000
  MOE2022           3D

 16 18  0  0  0  0  0  0  0  0999 V2000
    0.8390   -4.7770   -0.1800 C   0  0  0  0  0  0  0  0  0  0  0  0
    0.1260   -3.5960   -0.8120 N   0  3  0  0  0  0  0  0  0  0  0  0
   -1.0080   -3.0160   -0.0370 C   0  0  0  0  0  0  0  0  0  0  0  0
   -0.6040   -2.0200    1.0740 C   0  0  0  0  0  0  0  0  0  0  0  0
    0.5620   -1.1520    0.6440 C   0  0  0  0  0  0  0  0  0  0  0  0
    0.3360   -0.0210   -0.1730 C   0  0  0  0  0  0  0  0  0  0  0  0
    1.3900    0.7520   -0.6040 C   0  0  0  0  0  0  0  0  0  0  0  0
    2.7190    0.4210   -0.2430 C   0  0  0  0  0  0  0  0  0  0  0  0
    3.8390    1.1760   -0.6650 C   0  0  0  0  0  0  0  0  0  0  0  0
    5.0880    0.7620   -0.2800 C   0  0  0  0  0  0  0  0  0  0  0  0
    5.2380   -0.3980    0.5170 C   0  0  0  0  0  0  0  0  0  0  0  0
    4.2150   -1.1020    0.9160 N   0  0  0  0  0  0  0  0  0  0  0  0
    2.9460   -0.7130    0.5680 C   0  0  0  0  0  0  0  0  0  0  0  0
    1.8500   -1.4780    1.0150 C   0  0  0  0  0  0  0  0  0  0  0  0
   -2.2260   -3.8620    0.2040 C   0  0  0  0  0  0  0  0  0  0  0  0
   -2.2860   -2.7360   -0.7780 C   0  0  0  0  0  0  0  0  0  0  0  0
  1  2  1  0  0  0  0
  2  3  1  0  0  0  0
  3  4  1  0  0  0  0
  3 15  1  0  0  0  0
  3 16  1  0  0  0  0
  4  5  1  0  0  0  0
  5  6  1  0  0  0  0
  5 14  2  0  0  0  0
  6  7  2  0  0  0  0
  7  8  1  0  0  0  0
  8  9  1  0  0  0  0
  8 13  2  0  0  0  0
  9 10  2  0  0  0  0
 10 11  1  0  0  0  0
 11 12  2  0  0  0  0
 12 13  1  0  0  0  0
 13 14  1  0  0  0  0
 15 16  1  0  0  0  0
M  CHG  1   2   1
M  END
>  <NScode>
NS-042258780-0000

>  <a_acc>
2

>  <a_don>
1

>  <chiral>
0

>  <opr_nrot>
3

>  <Weight>
212.29599

>  <druglike>
1

>  <lip_druglike>
1

>  <lip_violation>
0

>  <logS>
-2.32777

$$$$
