NS-015321941-0000
  MOE2022           3D

 21 23  0  0  0  0  0  0  0  0999 V2000
   -1.3560   -0.3450   -0.0460 C   0  0  0  0  0  0  0  0  0  0  0  0
   -3.4800   -0.9630   -0.0800 C   0  0  0  0  0  0  0  0  0  0  0  0
   -2.6280    0.1350   -0.1380 O   0  0  0  0  0  0  0  0  0  0  0  0
   -2.7380   -2.0980    0.0460 C   0  0  0  0  0  0  0  0  0  0  0  0
   -0.2550    0.4060   -0.0650 N   0  0  0  0  0  0  0  0  0  0  0  0
   -1.3820   -1.7260    0.0700 C   0  0  0  0  0  0  0  0  0  0  0  0
    0.9180   -0.2340    0.0360 C   0  0  0  0  0  0  0  0  0  0  0  0
   -4.9260   -0.8200   -0.1500 C   0  0  0  0  0  0  0  0  0  0  0  0
   -0.1730   -2.4190    0.1850 C   0  0  0  0  0  0  0  0  0  0  0  0
    0.9770   -1.6490    0.1670 C   0  0  0  0  0  0  0  0  0  0  0  0
    2.1480    0.5590    0.0150 C   0  0  0  0  0  0  0  0  0  0  0  0
   -5.7040   -1.7650   -0.1000 O   0  0  0  0  0  0  0  0  0  0  0  0
    2.2100    1.7930    0.6750 C   0  0  0  0  0  0  0  0  0  0  0  0
    3.2910    0.1080   -0.6610 C   0  0  0  0  0  0  0  0  0  0  0  0
   -5.4490    0.4270   -0.2780 O   0  0  0  0  0  0  0  0  0  0  0  0
    4.4610    0.8600   -0.6590 C   0  0  0  0  0  0  0  0  0  0  0  0
    3.3810    2.5430    0.6750 C   0  0  0  0  0  0  0  0  0  0  0  0
    4.5150    2.0780    0.0140 C   0  0  0  0  0  0  0  0  0  0  0  0
   -0.1350   -3.9250    0.3250 C   0  0  0  0  0  0  0  0  0  0  0  0
    5.7860    2.8970    0.0070 C   0  0  0  0  0  0  0  0  0  0  0  0
   -6.8810    0.6580   -0.3550 C   0  0  0  0  0  0  0  0  0  0  0  0
  1  3  1  0  0  0  0
  1  5  2  0  0  0  0
  1  6  1  0  0  0  0
  2  3  1  0  0  0  0
  2  4  2  0  0  0  0
  2  8  1  0  0  0  0
  4  6  1  0  0  0  0
  5  7  1  0  0  0  0
  6  9  2  0  0  0  0
  7 10  2  0  0  0  0
  7 11  1  0  0  0  0
  8 12  2  0  0  0  0
  8 15  1  0  0  0  0
  9 10  1  0  0  0  0
  9 19  1  0  0  0  0
 11 13  1  0  0  0  0
 11 14  2  0  0  0  0
 13 17  2  0  0  0  0
 14 16  1  0  0  0  0
 15 21  1  0  0  0  0
 16 18  2  0  0  0  0
 17 18  1  0  0  0  0
 18 20  1  0  0  0  0
M  END
>  <NScode>
NS-015321941-0000

>  <a_acc>
2

>  <a_don>
0

>  <chiral>
0

>  <opr_nrot>
2

>  <Weight>
281.311

>  <druglike>
1

>  <lip_druglike>
1

>  <lip_violation>
0

>  <logS>
-6.2142401

$$$$
