NS-027748107-0000
  MOE2022           3D

 13 13  0  0  0  0  0  0  0  0999 V2000
   -2.6440    3.4810    0.1120 O   0  5  0  0  0  0  0  0  0  0  0  0
   -1.5810    3.5100   -0.5640 C   0  0  0  0  0  0  0  0  0  0  0  0
   -1.6030    3.3400   -1.8130 O   0  0  0  0  0  0  0  0  0  0  0  0
   -0.1830    3.6850    0.1400 C   0  0  0  0  0  0  0  0  0  0  0  0
   -0.2530    3.6460    1.5290 F   0  0  0  0  0  0  0  0  0  0  0  0
    0.3270    4.9570   -0.0880 F   0  0  0  0  0  0  0  0  0  0  0  0
    0.9110    2.6800   -0.3030 C   0  0  0  0  0  0  0  0  0  0  0  0
    0.8120    1.2370    0.2470 C   0  0  0  0  0  0  0  0  0  0  0  0
    2.0690    0.4620   -0.1950 C   0  0  0  0  0  0  0  0  0  0  0  0
    2.0460   -0.9920    0.2960 C   0  0  0  0  0  0  0  0  0  0  0  0
    0.7890   -1.7120   -0.2090 C   0  0  0  0  0  0  0  0  0  0  0  0
   -0.4740   -0.9650    0.2400 C   0  0  0  0  0  0  0  0  0  0  0  0
   -0.4550    0.4980   -0.2260 C   0  0  0  0  0  0  0  0  0  0  0  0
  1  2  1  0  0  0  0
  2  3  2  0  0  0  0
  2  4  1  0  0  0  0
  4  5  1  0  0  0  0
  4  6  1  0  0  0  0
  4  7  1  0  0  0  0
  7  8  1  0  0  0  0
  8  9  1  0  0  0  0
  8 13  1  0  0  0  0
  9 10  1  0  0  0  0
 10 11  1  0  0  0  0
 11 12  1  0  0  0  0
 12 13  1  0  0  0  0
M  CHG  1   1  -1
M  END
>  <NScode>
NS-027748107-0000

>  <a_acc>
1

>  <a_don>
2

>  <chiral>
0

>  <opr_nrot>
5

>  <Weight>
192.205

>  <druglike>
1

>  <lip_druglike>
1

>  <lip_violation>
0

>  <logS>
-3.2927599

$$$$
