NS-021062988-0000
  MOE2022           3D

 17 17  0  0  1  0  0  0  0  0999 V2000
    5.2950    1.8930    0.8000 C   0  0  0  0  0  0  0  0  0  0  0  0
    4.0480    2.6090    0.2970 C   0  0  0  0  0  0  0  0  0  0  0  0
    3.0900    1.6140   -0.0120 O   0  0  0  0  0  0  0  0  0  0  0  0
    1.8660    2.1370   -0.4840 C   0  0  0  0  0  0  0  0  0  0  0  0
    0.8180    1.0340   -0.6190 C   0  0  0  0  0  0  0  0  0  0  0  0
    0.1740    0.3690    0.9010 S   0  0  0  0  0  0  0  0  0  0  0  0
    1.2180   -0.3100    1.5830 O   0  0  0  0  0  0  0  0  0  0  0  0
   -0.4590    1.4330    1.6000 O   0  0  0  0  0  0  0  0  0  0  0  0
   -0.9550   -0.7530    0.4140 N   0  0  0  0  0  0  0  0  0  0  0  0
   -0.5090   -2.1130    0.0540 C   0  0  0  0  0  0  0  0  0  0  0  0
   -1.5000   -3.1860    0.5400 C   0  0  0  0  0  0  0  0  0  0  0  0
   -2.8330   -2.9890    0.0640 O   0  0  0  0  0  0  0  0  0  0  0  0
   -3.0930   -1.7000   -0.5090 C   0  0  0  0  0  0  0  0  0  0  0  0
   -2.4150   -0.4880    0.2220 C   0  0  3  0  0  0  0  0  0  0  0  0
   -3.0590   -0.3320    1.6120 C   0  0  0  0  0  0  0  0  0  0  0  0
   -2.6240    0.7880   -0.6430 C   0  0  0  0  0  0  0  0  0  0  0  0
   -4.0750    1.1550   -1.0080 C   0  0  0  0  0  0  0  0  0  0  0  0
  1  2  1  0  0  0  0
  2  3  1  0  0  0  0
  3  4  1  0  0  0  0
  4  5  1  0  0  0  0
  5  6  1  0  0  0  0
  6  7  2  0  0  0  0
  6  8  2  0  0  0  0
  6  9  1  0  0  0  0
  9 10  1  0  0  0  0
  9 14  1  0  0  0  0
 10 11  1  0  0  0  0
 11 12  1  0  0  0  0
 12 13  1  0  0  0  0
 13 14  1  0  0  0  0
 14 15  1  0  0  0  0
 14 16  1  0  0  0  0
 16 17  1  0  0  0  0
M  END
>  <NScode>
NS-021062988-0000

>  <a_acc>
4

>  <a_don>
0

>  <chiral>
1

>  <opr_nrot>
7

>  <Weight>
265.37399

>  <druglike>
1

>  <lip_druglike>
1

>  <lip_violation>
0

>  <logS>
-1.0921

$$$$
