NS-022409918-0000
  MOE2022           3D

 18 19  0  0  1  0  0  0  0  0999 V2000
   -1.5320   -3.4880    0.3460 C   0  0  0  0  0  0  0  0  0  0  0  0
   -2.2390   -2.8280    1.2840 C   0  0  0  0  0  0  0  0  0  0  0  0
   -3.0400   -4.8610    1.1770 N   0  0  0  0  0  0  0  0  0  0  0  0
   -3.1540   -3.6610    1.7850 O   0  0  0  0  0  0  0  0  0  0  0  0
   -2.0790   -4.7660    0.3220 C   0  0  0  0  0  0  0  0  0  0  0  0
   -0.3750   -2.9460   -0.4670 C   0  0  0  0  0  0  0  0  0  0  0  0
    2.1530   -2.6020   -0.5290 C   0  0  0  0  0  0  0  0  0  0  0  0
    3.3300   -2.5910    0.0930 N   0  0  0  0  0  0  0  0  0  0  0  0
    2.0230   -2.2420   -1.6910 O   0  0  0  0  0  0  0  0  0  0  0  0
   -2.1100   -1.2090    1.8660 Cl  0  0  0  0  0  0  0  0  0  0  0  0
    0.9580   -3.0950    0.2780 C   0  0  0  0  0  0  0  0  0  0  0  0
    7.1080   -2.3580   -0.4230 C   0  0  0  0  0  0  0  0  0  0  0  0
    7.2350   -1.0660   -0.7670 C   0  0  0  0  0  0  0  0  0  0  0  0
    4.5650   -2.1400   -0.5320 C   0  0  3  0  0  0  0  0  0  0  0  0
   -1.6560   -5.9160   -0.5580 C   0  0  0  0  0  0  0  0  0  0  0  0
    5.7690   -2.9870   -0.0840 C   0  0  0  0  0  0  0  0  0  0  0  0
    6.0530   -0.1230   -0.8790 C   0  0  0  0  0  0  0  0  0  0  0  0
    4.7870   -0.6650   -0.1960 C   0  0  0  0  0  0  0  0  0  0  0  0
  1  2  2  0  0  0  0
  1  5  1  0  0  0  0
  1  6  1  0  0  0  0
  2  4  1  0  0  0  0
  2 10  1  0  0  0  0
  3  4  1  0  0  0  0
  3  5  2  0  0  0  0
  5 15  1  0  0  0  0
  6 11  1  0  0  0  0
  7  8  1  0  0  0  0
  7  9  2  0  0  0  0
  7 11  1  0  0  0  0
  8 14  1  0  0  0  0
 12 13  2  0  0  0  0
 12 16  1  0  0  0  0
 13 17  1  0  0  0  0
 14 16  1  0  0  0  0
 14 18  1  0  0  0  0
 17 18  1  0  0  0  0
M  END
>  <NScode>
NS-022409918-0000

>  <a_acc>
2

>  <a_don>
1

>  <chiral>
1

>  <opr_nrot>
5

>  <Weight>
268.74399

>  <druglike>
1

>  <lip_druglike>
1

>  <lip_violation>
0

>  <logS>
-2.0999601

$$$$
