NS-024055788-00003-[5-(4-chlorophenyl)-1,3,4-oxadiazol-2-yl]-N,N,4-trimethylb...
  MOE2022           3D

 25 27  0  0  0  0  0  0  0  0999 V2000
    0.7750   -4.9310    1.3260 S   0  0  0  0  0  0  0  0  0  0  0  0
   -0.0830    0.0770    0.0450 C   0  0  0  0  0  0  0  0  0  0  0  0
    0.2320    1.3440    0.1800 O   0  0  0  0  0  0  0  0  0  0  0  0
   -1.3550   -0.0470   -0.1660 N   0  0  0  0  0  0  0  0  0  0  0  0
   -1.8740    1.2070   -0.1720 N   0  0  0  0  0  0  0  0  0  0  0  0
   -0.8850    2.0160    0.0380 C   0  0  0  0  0  0  0  0  0  0  0  0
    1.3570   -3.3260    0.7330 C   0  0  0  0  0  0  0  0  0  0  0  0
    0.9090   -0.9930    0.1520 C   0  0  0  0  0  0  0  0  0  0  0  0
    0.4800   -2.2490    0.6100 C   0  0  0  0  0  0  0  0  0  0  0  0
    0.4480   -5.8030   -0.0510 N   0  0  0  0  0  0  0  0  0  0  0  0
    1.8320   -5.5690    2.0330 O   0  0  0  0  0  0  0  0  0  0  0  0
   -0.4430   -4.7420    2.0360 O   0  0  0  0  0  0  0  0  0  0  0  0
   -0.9010    3.4710    0.1200 C   0  0  0  0  0  0  0  0  0  0  0  0
    2.2710   -0.8330   -0.1910 C   0  0  0  0  0  0  0  0  0  0  0  0
    2.7000   -3.1370    0.4120 C   0  0  0  0  0  0  0  0  0  0  0  0
    3.1490   -1.9040   -0.0460 C   0  0  0  0  0  0  0  0  0  0  0  0
    0.2810    4.2010    0.3440 C   0  0  0  0  0  0  0  0  0  0  0  0
   -2.1040    4.1830   -0.0290 C   0  0  0  0  0  0  0  0  0  0  0  0
   -0.9450    6.2760    0.2650 C   0  0  0  0  0  0  0  0  0  0  0  0
   -2.1280    5.5700    0.0430 C   0  0  0  0  0  0  0  0  0  0  0  0
    0.2600    5.5880    0.4160 C   0  0  0  0  0  0  0  0  0  0  0  0
   -0.9720    8.0070    0.3530 Cl  0  0  0  0  0  0  0  0  0  0  0  0
    0.2860   -7.2510    0.1060 C   0  0  0  0  0  0  0  0  0  0  0  0
   -0.5450   -5.2660   -0.9890 C   0  0  0  0  0  0  0  0  0  0  0  0
    2.8320    0.4720   -0.7290 C   0  0  0  0  0  0  0  0  0  0  0  0
  1  7  1  0  0  0  0
  1 10  1  0  0  0  0
  1 11  2  0  0  0  0
  1 12  2  0  0  0  0
  2  3  1  0  0  0  0
  2  4  2  0  0  0  0
  2  8  1  0  0  0  0
  3  6  1  0  0  0  0
  4  5  1  0  0  0  0
  5  6  2  0  0  0  0
  6 13  1  0  0  0  0
  7  9  2  0  0  0  0
  7 15  1  0  0  0  0
  8  9  1  0  0  0  0
  8 14  2  0  0  0  0
 10 23  1  0  0  0  0
 10 24  1  0  0  0  0
 13 17  1  0  0  0  0
 13 18  2  0  0  0  0
 14 16  1  0  0  0  0
 14 25  1  0  0  0  0
 15 16  2  0  0  0  0
 17 21  2  0  0  0  0
 18 20  1  0  0  0  0
 19 20  2  0  0  0  0
 19 21  1  0  0  0  0
 19 22  1  0  0  0  0
M  END
>  <NScode>
NS-024055788-0000

>  <a_acc>
4

>  <a_don>
0

>  <chiral>
0

>  <opr_nrot>
3

>  <Weight>
377.85199

>  <druglike>
1

>  <lip_druglike>
1

>  <lip_violation>
0

>  <logS>
-7.1593399

$$$$
