NS-017404086-0000
  MOE2022           3D

 18 18  0  0  0  0  0  0  0  0999 V2000
    3.2910   -5.4560    0.7610 N   0  0  0  0  0  0  0  0  0  0  0  0
    2.9670   -5.2290   -0.5770 C   0  0  0  0  0  0  0  0  0  0  0  0
   11.3750   -4.2680   -0.3880 C   0  0  0  0  0  0  0  0  0  0  0  0
    4.4470   -4.7480    1.3620 C   0  0  0  0  0  0  0  0  0  0  0  0
    5.8140   -5.3340    1.0460 C   0  0  0  0  0  0  0  0  0  0  0  0
    2.5660   -6.3530    1.5380 C   0  0  0  0  0  0  0  0  0  0  0  0
    1.8310   -5.9180   -1.1120 C   0  0  0  0  0  0  0  0  0  0  0  0
    3.6860   -4.4550   -1.2280 O   0  0  0  0  0  0  0  0  0  0  0  0
    1.4920   -7.0070    1.0080 C   0  0  0  0  0  0  0  0  0  0  0  0
    1.1090   -6.7830   -0.3440 C   0  0  0  0  0  0  0  0  0  0  0  0
    6.4920   -5.8920    1.9020 O   0  0  0  0  0  0  0  0  0  0  0  0
   10.2380   -5.5240   -1.0620 S   0  0  0  0  0  0  0  0  0  0  0  0
   12.6360   -4.5050   -0.7610 F   0  0  0  0  0  0  0  0  0  0  0  0
   11.0510   -3.0430   -0.8190 F   0  0  0  0  0  0  0  0  0  0  0  0
   11.3460   -4.2490    0.9490 F   0  0  0  0  0  0  0  0  0  0  0  0
    6.2500   -5.2280   -0.2110 N   0  0  0  0  0  0  0  0  0  0  0  0
    8.6620   -4.8790   -0.4000 C   0  0  0  0  0  0  0  0  0  0  0  0
    7.4930   -5.8170   -0.6970 C   0  0  0  0  0  0  0  0  0  0  0  0
  1  2  1  0  0  0  0
  1  4  1  0  0  0  0
  1  6  1  0  0  0  0
  2  7  1  0  0  0  0
  2  8  2  0  0  0  0
  3 12  1  0  0  0  0
  3 13  1  0  0  0  0
  3 14  1  0  0  0  0
  3 15  1  0  0  0  0
  4  5  1  0  0  0  0
  5 11  2  0  0  0  0
  5 16  1  0  0  0  0
  6  9  2  0  0  0  0
  7 10  2  0  0  0  0
  9 10  1  0  0  0  0
 12 17  1  0  0  0  0
 16 18  1  0  0  0  0
 17 18  1  0  0  0  0
M  END
>  <NScode>
NS-017404086-0000

>  <a_acc>
2

>  <a_don>
1

>  <chiral>
0

>  <opr_nrot>
5

>  <Weight>
280.26999

>  <druglike>
1

>  <lip_druglike>
1

>  <lip_violation>
0

>  <logS>
-2.8877499

$$$$
