NS-012767248-0000
  MOE2022           3D

 23 26  0  0  0  0  0  0  0  0999 V2000
   -0.3150   -4.8220    3.3410 C   0  0  0  0  0  0  0  0  0  0  0  0
    0.1060   -4.1040    2.1230 N   0  0  0  0  0  0  0  0  0  0  0  0
    0.4530   -4.8490    0.9820 C   0  0  0  0  0  0  0  0  0  0  0  0
    0.3920   -6.0770    1.0140 O   0  0  0  0  0  0  0  0  0  0  0  0
    0.8650   -4.1940   -0.1770 N   0  0  0  0  0  0  0  0  0  0  0  0
    1.2250   -4.9580   -1.3770 C   0  0  0  0  0  0  0  0  0  0  0  0
    0.8640   -2.8000   -0.2240 C   0  0  0  0  0  0  0  0  0  0  0  0
    1.2050   -2.0040   -1.2560 N   0  0  0  0  0  0  0  0  0  0  0  0
    1.0340   -0.7930   -0.7870 C   0  0  0  0  0  0  0  0  0  0  0  0
    0.5900   -0.8050    0.5000 N   0  0  0  0  0  0  0  0  0  0  0  0
    0.3200    0.3660    1.3380 C   0  0  0  0  0  0  0  0  0  0  0  0
   -0.0230    1.6220    0.5710 C   0  0  0  0  0  0  0  0  0  0  0  0
    0.8570    2.4390    0.0860 N   0  0  0  0  0  0  0  0  0  0  0  0
    0.2350    3.4790   -0.5770 C   0  0  0  0  0  0  0  0  0  0  0  0
    0.8700    4.5500   -1.2260 C   0  0  0  0  0  0  0  0  0  0  0  0
    0.1080    5.5230   -1.8550 C   0  0  0  0  0  0  0  0  0  0  0  0
   -1.3010    5.4450   -1.8460 C   0  0  0  0  0  0  0  0  0  0  0  0
   -1.9390    4.3950   -1.2100 C   0  0  0  0  0  0  0  0  0  0  0  0
   -1.1530    3.4180   -0.5790 C   0  0  0  0  0  0  0  0  0  0  0  0
   -1.6800    2.0220    0.2700 S   0  0  0  0  0  0  0  0  0  0  0  0
    0.4870   -2.1100    0.8680 C   0  0  0  0  0  0  0  0  0  0  0  0
    0.0910   -2.7170    2.0900 C   0  0  0  0  0  0  0  0  0  0  0  0
   -0.2540   -2.0940    3.0920 O   0  0  0  0  0  0  0  0  0  0  0  0
  1  2  1  0  0  0  0
  2  3  1  0  0  0  0
  2 22  1  0  0  0  0
  3  4  2  0  0  0  0
  3  5  1  0  0  0  0
  5  6  1  0  0  0  0
  5  7  1  0  0  0  0
  7  8  1  0  0  0  0
  7 21  2  0  0  0  0
  8  9  2  0  0  0  0
  9 10  1  0  0  0  0
 10 11  1  0  0  0  0
 10 21  1  0  0  0  0
 11 12  1  0  0  0  0
 12 13  2  0  0  0  0
 12 20  1  0  0  0  0
 13 14  1  0  0  0  0
 14 15  1  0  0  0  0
 14 19  2  0  0  0  0
 15 16  2  0  0  0  0
 16 17  1  0  0  0  0
 17 18  2  0  0  0  0
 18 19  1  0  0  0  0
 19 20  1  0  0  0  0
 21 22  1  0  0  0  0
 22 23  2  0  0  0  0
M  END
>  <NScode>
NS-012767248-0000

>  <a_acc>
4

>  <a_don>
0

>  <chiral>
0

>  <opr_nrot>
2

>  <Weight>
327.36801

>  <druglike>
1

>  <lip_druglike>
1

>  <lip_violation>
0

>  <logS>
-2.97316

$$$$
