NS-006038943-0001
  MOE2022           3D

 15 16  0  0  1  0  0  0  0  0999 V2000
    4.4750    1.1570   -0.0250 O   0  0  0  0  0  0  0  0  0  0  0  0
    3.4980    0.3920    0.7600 C   0  0  3  0  0  0  0  0  0  0  0  0
    3.4800   -1.1050    0.3420 C   0  0  0  0  0  0  0  0  0  0  0  0
    4.8370   -1.5920    0.3830 O   0  0  0  0  0  0  0  0  0  0  0  0
    5.7000    0.5690   -0.2680 C   0  0  0  0  0  0  0  0  0  0  0  0
    5.8850   -0.8010   -0.0500 C   0  0  0  0  0  0  0  0  0  0  0  0
    2.1240    1.0950    0.6720 C   0  0  3  0  0  0  0  0  0  0  0  0
    1.9150    1.7120   -0.6560 N   0  3  0  0  0  0  0  0  0  0  0  0
    2.9430   -1.3580   -1.0760 C   0  0  0  0  0  0  0  0  0  0  0  0
    2.6710   -1.9560    1.3300 C   0  0  0  0  0  0  0  0  0  0  0  0
    6.7510    1.3550   -0.7300 C   0  0  0  0  0  0  0  0  0  0  0  0
    7.1250   -1.3870   -0.2730 C   0  0  0  0  0  0  0  0  0  0  0  0
    2.0400    2.2030    1.7210 C   0  0  0  0  0  0  0  0  0  0  0  0
    7.9940    0.7660   -0.9610 C   0  0  0  0  0  0  0  0  0  0  0  0
    8.1810   -0.5990   -0.7300 C   0  0  0  0  0  0  0  0  0  0  0  0
  1  2  1  0  0  0  0
  1  5  1  0  0  0  0
  2  3  1  0  0  0  0
  2  7  1  0  0  0  0
  3  4  1  0  0  0  0
  3  9  1  0  0  0  0
  3 10  1  0  0  0  0
  4  6  1  0  0  0  0
  5  6  2  0  0  0  0
  5 11  1  0  0  0  0
  6 12  1  0  0  0  0
  7  8  1  0  0  0  0
  7 13  1  0  0  0  0
 11 14  2  0  0  0  0
 12 15  2  0  0  0  0
 14 15  1  0  0  0  0
M  CHG  1   8   1
M  END
>  <NScode>
NS-006038943-0001

>  <a_acc>
3

>  <a_don>
1

>  <chiral>
2

>  <opr_nrot>
2

>  <Weight>
207.27299

>  <druglike>
1

>  <lip_druglike>
1

>  <lip_violation>
0

>  <logS>
-2.3074701

$$$$
