NS-013429485-0000
  MOE2022           3D

 32 35  0  0  0  0  0  0  0  0999 V2000
   -0.0940    1.7730    0.2420 N   0  0  0  0  0  0  0  0  0  0  0  0
   -0.4100    0.7670   -0.6720 C   0  0  0  0  0  0  0  0  0  0  0  0
   -1.6240    0.8030   -1.3480 N   0  0  0  0  0  0  0  0  0  0  0  0
   -2.2160    2.8140   -0.2150 C   0  0  0  0  0  0  0  0  0  0  0  0
   -0.9480    2.8510    0.4460 C   0  0  0  0  0  0  0  0  0  0  0  0
   -2.5770    1.8140   -1.0730 C   0  0  0  0  0  0  0  0  0  0  0  0
   -3.5040    3.9690   -0.0440 S   0  0  0  0  0  0  0  0  0  0  0  0
    1.1790    1.6880    0.9770 C   0  0  0  0  0  0  0  0  0  0  0  0
   -2.5140   -1.5390   -1.5780 C   0  0  0  0  0  0  0  0  0  0  0  0
   -1.9390   -0.3160   -2.2650 C   0  0  0  0  0  0  0  0  0  0  0  0
   -3.8790    1.9260   -1.5810 C   0  0  0  0  0  0  0  0  0  0  0  0
   -1.6460   -2.2640   -0.8010 N   0  0  0  0  0  0  0  0  0  0  0  0
    0.3820   -0.1530   -0.8790 O   0  0  0  0  0  0  0  0  0  0  0  0
   -4.5080    3.0490   -1.1140 C   0  0  0  0  0  0  0  0  0  0  0  0
   -1.8550   -3.4370   -0.0210 C   0  0  0  0  0  0  0  0  0  0  0  0
   -0.5610    3.7590    1.1800 O   0  0  0  0  0  0  0  0  0  0  0  0
   -3.6880   -1.8300   -1.6770 O   0  0  0  0  0  0  0  0  0  0  0  0
   -0.8070   -3.8110    0.8340 C   0  0  0  0  0  0  0  0  0  0  0  0
    2.3620    2.3100    0.2250 C   0  0  0  0  0  0  0  0  0  0  0  0
    0.3400   -3.0210    0.8610 O   0  0  0  0  0  0  0  0  0  0  0  0
    3.6660    2.0940    0.9630 C   0  0  0  0  0  0  0  0  0  0  0  0
   -3.0150   -4.2150   -0.0820 C   0  0  0  0  0  0  0  0  0  0  0  0
   -0.9220   -4.9510    1.6310 C   0  0  0  0  0  0  0  0  0  0  0  0
    1.5740   -3.3780    1.5140 C   0  0  0  0  0  0  0  0  0  0  0  0
    4.1030    3.0340    1.9150 C   0  0  0  0  0  0  0  0  0  0  0  0
    4.4300    0.9370    0.7190 C   0  0  0  0  0  0  0  0  0  0  0  0
    2.6540   -2.3310    1.2610 C   0  0  0  0  0  0  0  0  0  0  0  0
   -3.1230   -5.3510    0.7160 C   0  0  0  0  0  0  0  0  0  0  0  0
   -2.0840   -5.7180    1.5690 C   0  0  0  0  0  0  0  0  0  0  0  0
    5.3050    2.8210    2.6140 C   0  0  0  0  0  0  0  0  0  0  0  0
    5.6300    0.7240    1.4190 C   0  0  0  0  0  0  0  0  0  0  0  0
    6.0680    1.6660    2.3660 C   0  0  0  0  0  0  0  0  0  0  0  0
  1  2  1  0  0  0  0
  1  5  1  0  0  0  0
  1  8  1  0  0  0  0
  2  3  1  0  0  0  0
  2 13  2  0  0  0  0
  3  6  1  0  0  0  0
  3 10  1  0  0  0  0
  4  5  1  0  0  0  0
  4  6  2  0  0  0  0
  4  7  1  0  0  0  0
  5 16  2  0  0  0  0
  6 11  1  0  0  0  0
  7 14  1  0  0  0  0
  8 19  1  0  0  0  0
  9 10  1  0  0  0  0
  9 12  1  0  0  0  0
  9 17  2  0  0  0  0
 11 14  2  0  0  0  0
 12 15  1  0  0  0  0
 15 18  2  0  0  0  0
 15 22  1  0  0  0  0
 18 20  1  0  0  0  0
 18 23  1  0  0  0  0
 19 21  1  0  0  0  0
 20 24  1  0  0  0  0
 21 25  2  0  0  0  0
 21 26  1  0  0  0  0
 22 28  2  0  0  0  0
 23 29  2  0  0  0  0
 24 27  1  0  0  0  0
 25 30  1  0  0  0  0
 26 31  2  0  0  0  0
 28 29  1  0  0  0  0
 30 32  2  0  0  0  0
 31 32  1  0  0  0  0
M  END
>  <NScode>
NS-013429485-0000

>  <a_acc>
4

>  <a_don>
1

>  <chiral>
0

>  <opr_nrot>
8

>  <Weight>
449.53101

>  <druglike>
1

>  <lip_druglike>
1

>  <lip_violation>
0

>  <logS>
-5.73598

$$$$
