NS-019589218-0000
  MOE2022           3D

 27 29  0  0  0  0  0  0  0  0999 V2000
   -0.1140    1.2040    0.8270 S   0  0  0  0  0  0  0  0  0  0  0  0
   -7.5720   -0.4700   -0.1570 C   0  0  0  0  0  0  0  0  0  0  0  0
   -6.9360    0.9930   -1.0290 S   0  0  0  0  0  0  0  0  0  0  0  0
    1.5440    0.6210    0.4420 C   0  0  0  0  0  0  0  0  0  0  0  0
   -1.0230    0.5630   -0.3420 N   0  0  0  0  0  0  0  0  0  0  0  0
    2.4130    1.4040   -0.3240 C   0  0  0  0  0  0  0  0  0  0  0  0
    3.7080    0.9640   -0.5770 C   0  0  0  0  0  0  0  0  0  0  0  0
   -0.4870    0.6500    2.1010 O   0  0  0  0  0  0  0  0  0  0  0  0
   -0.1140    2.6380    0.7230 O   0  5  0  0  0  0  0  0  0  0  0  0
   -5.1530    0.8840   -0.8380 C   0  0  0  0  0  0  0  0  0  0  0  0
    4.1480   -0.2650   -0.0700 C   0  0  0  0  0  0  0  0  0  0  0  0
   -7.1880    0.8600   -2.4800 O   0  0  0  0  0  0  0  0  0  0  0  0
    4.5320    1.7640   -1.3420 O   0  0  0  0  0  0  0  0  0  0  0  0
    5.4260   -0.7320   -0.2990 O   0  0  0  0  0  0  0  0  0  0  0  0
    1.9920   -0.6080    0.9400 C   0  0  0  0  0  0  0  0  0  0  0  0
    3.2870   -1.0570    0.6810 C   0  0  0  0  0  0  0  0  0  0  0  0
   -7.3110   -0.4860    1.1630 F   0  0  0  0  0  0  0  0  0  0  0  0
   -7.1040   -1.6570   -0.5870 F   0  0  0  0  0  0  0  0  0  0  0  0
   -8.9100   -0.6180   -0.2040 F   0  0  0  0  0  0  0  0  0  0  0  0
   -2.3450    0.6930   -0.4810 C   0  0  0  0  0  0  0  0  0  0  0  0
   -4.3680    0.1510   -1.7340 C   0  0  0  0  0  0  0  0  0  0  0  0
   -4.5240    1.5360    0.2260 C   0  0  0  0  0  0  0  0  0  0  0  0
   -3.1560    1.4480    0.4070 C   0  0  0  0  0  0  0  0  0  0  0  0
   -2.9980    0.0560   -1.5630 C   0  0  0  0  0  0  0  0  0  0  0  0
    6.6820    1.4370   -0.0940 C   0  0  0  0  0  0  0  0  0  0  0  0
    5.6880    2.4140   -0.7590 C   0  0  0  0  0  0  0  0  0  0  0  0
    6.5850   -0.0620    0.2650 C   0  0  0  0  0  0  0  0  0  0  0  0
  1  4  1  0  0  0  0
  1  5  2  0  0  0  0
  1  8  2  0  0  0  0
  1  9  1  0  0  0  0
  2  3  1  0  0  0  0
  2 17  1  0  0  0  0
  2 18  1  0  0  0  0
  2 19  1  0  0  0  0
  3 10  1  0  0  0  0
  3 12  2  0  0  0  0
  4  6  1  0  0  0  0
  4 15  2  0  0  0  0
  5 20  1  0  0  0  0
  6  7  2  0  0  0  0
  7 11  1  0  0  0  0
  7 13  1  0  0  0  0
 10 21  1  0  0  0  0
 10 22  2  0  0  0  0
 11 14  1  0  0  0  0
 11 16  2  0  0  0  0
 13 26  1  0  0  0  0
 14 27  1  0  0  0  0
 15 16  1  0  0  0  0
 20 23  2  0  0  0  0
 20 24  1  0  0  0  0
 21 24  2  0  0  0  0
 22 23  1  0  0  0  0
 25 26  1  0  0  0  0
 25 27  1  0  0  0  0
M  CHG  1   9  -1
M  END
>  <NScode>
NS-019589218-0000

>  <a_acc>
5

>  <a_don>
1

>  <chiral>
0

>  <opr_nrot>
5

>  <Weight>
421.41599

>  <druglike>
1

>  <lip_druglike>
1

>  <lip_violation>
0

>  <logS>
-4.9272099

$$$$
