NS-021802538-0000
  MOE2022           3D

 20 21  0  0  0  0  0  0  0  0999 V2000
   -1.4930    4.7040   -1.0700 C   0  0  0  0  0  0  0  0  0  0  0  0
   -1.1740    3.4660   -0.2740 C   0  0  0  0  0  0  0  0  0  0  0  0
    0.0130    2.9680   -0.1300 N   0  0  0  0  0  0  0  0  0  0  0  0
   -0.0170    1.8240    0.6600 C   0  0  0  0  0  0  0  0  0  0  0  0
    1.2010    1.0660    0.9590 C   0  0  0  0  0  0  0  0  0  0  0  0
    1.4430    0.4740    2.0110 O   0  0  0  0  0  0  0  0  0  0  0  0
    2.1460    0.9910   -0.0220 N   0  0  0  0  0  0  0  0  0  0  0  0
    2.8620   -0.2680   -0.2110 C   0  0  0  0  0  0  0  0  0  0  0  0
    1.9630   -1.3340   -0.7990 C   0  0  0  0  0  0  0  0  0  0  0  0
    0.9510   -1.9460   -0.1600 C   0  0  0  0  0  0  0  0  0  0  0  0
    0.3910   -2.7470   -1.0620 N   0  0  0  0  0  0  0  0  0  0  0  0
   -0.7450   -3.6160   -0.8620 C   0  0  0  0  0  0  0  0  0  0  0  0
   -1.8240   -2.9880   -0.0370 C   0  0  0  0  0  0  0  0  0  0  0  0
   -2.7480   -2.3960   -0.6320 O   0  5  0  0  0  0  0  0  0  0  0  0
   -1.7140   -3.0610    1.2050 O   0  0  0  0  0  0  0  0  0  0  0  0
    1.0640   -2.6590   -2.2230 N   0  0  0  0  0  0  0  0  0  0  0  0
    2.0330   -1.7840   -2.0690 N   0  0  0  0  0  0  0  0  0  0  0  0
   -1.2790    1.4700    1.0770 C   0  0  0  0  0  0  0  0  0  0  0  0
   -1.7460    0.2520    1.8520 C   0  0  0  0  0  0  0  0  0  0  0  0
   -2.4300    2.5990    0.5210 S   0  0  0  0  0  0  0  0  0  0  0  0
  1  2  1  0  0  0  0
  2  3  2  0  0  0  0
  2 20  1  0  0  0  0
  3  4  1  0  0  0  0
  4  5  1  0  0  0  0
  4 18  2  0  0  0  0
  5  6  2  0  0  0  0
  5  7  1  0  0  0  0
  7  8  1  0  0  0  0
  8  9  1  0  0  0  0
  9 10  2  0  0  0  0
  9 17  1  0  0  0  0
 10 11  1  0  0  0  0
 11 12  1  0  0  0  0
 11 16  1  0  0  0  0
 12 13  1  0  0  0  0
 13 14  1  0  0  0  0
 13 15  2  0  0  0  0
 16 17  2  0  0  0  0
 18 19  1  0  0  0  0
 18 20  1  0  0  0  0
M  CHG  1  14  -1
M  END
>  <NScode>
NS-021802538-0000

>  <a_acc>
5

>  <a_don>
3

>  <chiral>
0

>  <opr_nrot>
5

>  <Weight>
295.323

>  <druglike>
1

>  <lip_druglike>
1

>  <lip_violation>
0

>  <logS>
-0.62620997

$$$$
