NS-016156860-0000
  MOE2022           3D

 24 26  0  0  0  0  0  0  0  0999 V2000
   -1.5940    5.5400    1.5080 S   0  0  0  0  0  0  0  0  0  0  0  0
   -7.3760    3.0960   -0.6940 N   0  0  0  0  0  0  0  0  0  0  0  0
   -7.9000    4.3490   -0.8570 C   0  0  0  0  0  0  0  0  0  0  0  0
   -6.0640    3.1800   -0.1630 C   0  0  0  0  0  0  0  0  0  0  0  0
   -5.7250    4.5090    0.0110 C   0  0  0  0  0  0  0  0  0  0  0  0
   -6.8760    5.3740   -0.4210 C   0  0  0  0  0  0  0  0  0  0  0  0
   -2.3200    4.1100    1.3350 N   0  0  0  0  0  0  0  0  0  0  0  0
   -1.4590    6.1400   -0.1680 C   0  0  0  0  0  0  0  0  0  0  0  0
   -0.9890    7.5760   -0.3740 C   0  0  0  0  0  0  0  0  0  0  0  0
   -0.2600    5.3510    2.0070 O   0  0  0  0  0  0  0  0  0  0  0  0
   -2.4330    6.4470    2.2430 O   0  5  0  0  0  0  0  0  0  0  0  0
   -5.1820    2.1570    0.1740 C   0  0  0  0  0  0  0  0  0  0  0  0
   -4.4920    4.8630    0.5230 C   0  0  0  0  0  0  0  0  0  0  0  0
   -9.0220    4.5560   -1.2880 O   0  0  0  0  0  0  0  0  0  0  0  0
   -3.5450    3.8520    0.8640 C   0  0  0  0  0  0  0  0  0  0  0  0
   -1.8040    8.5630   -0.9510 C   0  0  0  0  0  0  0  0  0  0  0  0
   -3.9370    2.4940    0.6850 C   0  0  0  0  0  0  0  0  0  0  0  0
   -8.1140    1.8720   -0.9730 C   0  0  0  0  0  0  0  0  0  0  0  0
   -3.4280    8.2310   -1.4800 Cl  0  0  0  0  0  0  0  0  0  0  0  0
    0.2980    7.9200    0.0350 C   0  0  0  0  0  0  0  0  0  0  0  0
   -1.3190    9.8630   -1.1210 C   0  0  0  0  0  0  0  0  0  0  0  0
   -8.7450    1.2700    0.2860 C   0  0  0  0  0  0  0  0  0  0  0  0
    0.7790    9.2160   -0.1350 C   0  0  0  0  0  0  0  0  0  0  0  0
   -0.0300   10.1870   -0.7160 C   0  0  0  0  0  0  0  0  0  0  0  0
  1  7  2  0  0  0  0
  1  8  1  0  0  0  0
  1 10  2  0  0  0  0
  1 11  1  0  0  0  0
  2  3  1  0  0  0  0
  2  4  1  0  0  0  0
  2 18  1  0  0  0  0
  3  6  1  0  0  0  0
  3 14  2  0  0  0  0
  4  5  2  0  0  0  0
  4 12  1  0  0  0  0
  5  6  1  0  0  0  0
  5 13  1  0  0  0  0
  7 15  1  0  0  0  0
  8  9  1  0  0  0  0
  9 16  2  0  0  0  0
  9 20  1  0  0  0  0
 12 17  2  0  0  0  0
 13 15  2  0  0  0  0
 15 17  1  0  0  0  0
 16 19  1  0  0  0  0
 16 21  1  0  0  0  0
 18 22  1  0  0  0  0
 20 23  2  0  0  0  0
 21 24  2  0  0  0  0
 23 24  1  0  0  0  0
M  CHG  1  11  -1
M  END
>  <NScode>
NS-016156860-0000

>  <a_acc>
3

>  <a_don>
1

>  <chiral>
0

>  <opr_nrot>
4

>  <Weight>
364.853

>  <druglike>
1

>  <lip_druglike>
1

>  <lip_violation>
0

>  <logS>
-4.3322301

$$$$
