NS-018384754-0000
  MOE2022           3D

 26 28  0  0  0  0  0  0  0  0999 V2000
   -1.6320   -1.8010   -0.3610 S   0  0  0  0  0  0  0  0  0  0  0  0
    4.1010    1.7730   -1.2990 N   0  0  0  0  0  0  0  0  0  0  0  0
    2.9130    2.1170   -0.9060 C   0  0  0  0  0  0  0  0  0  0  0  0
    2.8410    3.4210    0.2320 S   0  0  0  0  0  0  0  0  0  0  0  0
   -1.3030   -1.1780    1.1150 N   0  0  0  0  0  0  0  0  0  0  0  0
    5.0580    2.5600   -0.6910 C   0  0  0  0  0  0  0  0  0  0  0  0
    4.5550    3.5170    0.1810 C   0  0  0  0  0  0  0  0  0  0  0  0
   -3.2580   -2.5620   -0.1850 C   0  0  0  0  0  0  0  0  0  0  0  0
    0.0890   -0.7370    1.3520 C   0  0  0  0  0  0  0  0  0  0  0  0
    0.5150    0.5120    0.5870 C   0  0  0  0  0  0  0  0  0  0  0  0
   -0.6730   -2.8050   -0.6510 O   0  0  0  0  0  0  0  0  0  0  0  0
   -1.7260   -0.7190   -1.2750 O   0  0  0  0  0  0  0  0  0  0  0  0
    0.1430    1.6430    0.8970 O   0  0  0  0  0  0  0  0  0  0  0  0
    1.2410    0.3280   -0.5210 O   0  0  0  0  0  0  0  0  0  0  0  0
    1.6390    1.4410   -1.3720 C   0  0  0  0  0  0  0  0  0  0  0  0
   -4.4150   -1.8730   -0.5690 C   0  0  0  0  0  0  0  0  0  0  0  0
   -3.3800   -3.8600    0.3230 C   0  0  0  0  0  0  0  0  0  0  0  0
   -5.7700   -3.7480    0.0910 C   0  0  0  0  0  0  0  0  0  0  0  0
   -5.6710   -2.4580   -0.4300 C   0  0  0  0  0  0  0  0  0  0  0  0
   -4.6310   -4.4520    0.4640 C   0  0  0  0  0  0  0  0  0  0  0  0
   -6.9800   -4.3770    0.2590 O   0  0  0  0  0  0  0  0  0  0  0  0
    6.4480    2.4710   -0.8730 C   0  0  0  0  0  0  0  0  0  0  0  0
    5.3930    4.3970    0.8830 C   0  0  0  0  0  0  0  0  0  0  0  0
   -8.2660   -3.8030   -0.0660 C   0  0  0  0  0  0  0  0  0  0  0  0
    6.7600    4.2990    0.6940 C   0  0  0  0  0  0  0  0  0  0  0  0
    7.2900    3.3320   -0.1870 C   0  0  0  0  0  0  0  0  0  0  0  0
  1  5  1  0  0  0  0
  1  8  1  0  0  0  0
  1 11  2  0  0  0  0
  1 12  2  0  0  0  0
  2  3  2  0  0  0  0
  2  6  1  0  0  0  0
  3  4  1  0  0  0  0
  3 15  1  0  0  0  0
  4  7  1  0  0  0  0
  5  9  1  0  0  0  0
  6  7  2  0  0  0  0
  6 22  1  0  0  0  0
  7 23  1  0  0  0  0
  8 16  2  0  0  0  0
  8 17  1  0  0  0  0
  9 10  1  0  0  0  0
 10 13  2  0  0  0  0
 10 14  1  0  0  0  0
 14 15  1  0  0  0  0
 16 19  1  0  0  0  0
 17 20  2  0  0  0  0
 18 19  2  0  0  0  0
 18 20  1  0  0  0  0
 18 21  1  0  0  0  0
 21 24  1  0  0  0  0
 22 26  2  0  0  0  0
 23 25  2  0  0  0  0
 25 26  1  0  0  0  0
M  END
>  <NScode>
NS-018384754-0000

>  <a_acc>
5

>  <a_don>
1

>  <chiral>
0

>  <opr_nrot>
6

>  <Weight>
392.45599

>  <druglike>
1

>  <lip_druglike>
1

>  <lip_violation>
0

>  <logS>
-3.9662399

$$$$
