NS-015807654-0000
  MOE2022           3D

 31 34  0  0  1  0  0  0  0  0999 V2000
    1.0390    4.1210   -0.2440 C   0  0  0  0  0  0  0  0  0  0  0  0
   -0.7510   -0.1610   -0.4480 C   0  0  0  0  0  0  0  0  0  0  0  0
   -0.5010   -1.2520   -1.0590 N   0  0  0  0  0  0  0  0  0  0  0  0
    0.2240    3.2350   -1.0580 C   0  0  0  0  0  0  0  0  0  0  0  0
    1.7750    5.9740    0.7380 N   0  0  0  0  0  0  0  0  0  0  0  0
   -1.1050    3.0140   -0.7260 N   0  0  0  0  0  0  0  0  0  0  0  0
    0.8920    5.5020   -0.0920 C   0  0  0  0  0  0  0  0  0  0  0  0
   -2.0240    0.6700   -0.5020 C   0  0  3  0  0  0  0  0  0  0  0  0
    0.7560   -1.5400   -0.6630 C   0  0  0  0  0  0  0  0  0  0  0  0
    2.5170    4.9040    1.1170 N   0  0  0  0  0  0  0  0  0  0  0  0
    1.2370   -0.6690    0.1390 N   0  0  0  0  0  0  0  0  0  0  0  0
    2.0980    3.7710    0.5370 C   0  0  0  0  0  0  0  0  0  0  0  0
    0.2810    0.2230    0.2810 O   0  0  0  0  0  0  0  0  0  0  0  0
   -1.6700   -6.6640   -0.5130 C   0  0  0  0  0  0  0  0  0  0  0  0
   -1.8750    1.9270   -1.3850 C   0  0  0  0  0  0  0  0  0  0  0  0
   -0.4160   -5.8990   -0.0800 C   0  0  0  0  0  0  0  0  0  0  0  0
   -2.5220    1.0510    0.8520 O   0  0  0  0  0  0  0  0  0  0  0  0
    0.6620    2.6370   -2.0360 O   0  0  0  0  0  0  0  0  0  0  0  0
   -0.0260   -4.7390   -0.7600 C   0  0  0  0  0  0  0  0  0  0  0  0
    1.5120   -2.7680   -1.1170 C   0  0  0  0  0  0  0  0  0  0  0  0
    1.1080   -4.0280   -0.3700 C   0  0  0  0  0  0  0  0  0  0  0  0
   -1.8560   -6.6380   -1.8470 F   0  0  0  0  0  0  0  0  0  0  0  0
   -1.6380   -7.9650   -0.1660 F   0  0  0  0  0  0  0  0  0  0  0  0
   -2.7840   -6.1530    0.0350 F   0  0  0  0  0  0  0  0  0  0  0  0
   -1.6620    3.3780    0.5960 C   0  0  0  0  0  0  0  0  0  0  0  0
   -1.8250    2.1570    1.5220 C   0  0  0  0  0  0  0  0  0  0  0  0
    3.6380    5.0240    2.0230 C   0  0  0  0  0  0  0  0  0  0  0  0
   -0.1220    6.3860   -0.7750 C   0  0  0  0  0  0  0  0  0  0  0  0
    0.3470   -6.3280    1.0120 C   0  0  0  0  0  0  0  0  0  0  0  0
    1.4740   -5.6160    1.4080 C   0  0  0  0  0  0  0  0  0  0  0  0
    1.8530   -4.4700    0.7200 C   0  0  0  0  0  0  0  0  0  0  0  0
  1  4  1  0  0  0  0
  1  7  1  0  0  0  0
  1 12  2  0  0  0  0
  2  3  2  0  0  0  0
  2  8  1  0  0  0  0
  2 13  1  0  0  0  0
  3  9  1  0  0  0  0
  4  6  1  0  0  0  0
  4 18  2  0  0  0  0
  5  7  2  0  0  0  0
  5 10  1  0  0  0  0
  6 15  1  0  0  0  0
  6 25  1  0  0  0  0
  7 28  1  0  0  0  0
  8 15  1  0  0  0  0
  8 17  1  0  0  0  0
  9 11  2  0  0  0  0
  9 20  1  0  0  0  0
 10 12  1  0  0  0  0
 10 27  1  0  0  0  0
 11 13  1  0  0  0  0
 14 16  1  0  0  0  0
 14 22  1  0  0  0  0
 14 23  1  0  0  0  0
 14 24  1  0  0  0  0
 16 19  2  0  0  0  0
 16 29  1  0  0  0  0
 17 26  1  0  0  0  0
 19 21  1  0  0  0  0
 20 21  1  0  0  0  0
 21 31  2  0  0  0  0
 25 26  1  0  0  0  0
 29 30  2  0  0  0  0
 30 31  1  0  0  0  0
M  END
>  <NScode>
NS-015807654-0000

>  <a_acc>
5

>  <a_don>
0

>  <chiral>
1

>  <opr_nrot>
6

>  <Weight>
435.40598

>  <druglike>
1

>  <lip_druglike>
1

>  <lip_violation>
0

>  <logS>
-3.9323299

$$$$
