NS-016108923-0000
  MOE2022           3D

 23 25  0  0  0  0  0  0  0  0999 V2000
    0.6580   -5.5930    0.0220 C   0  0  0  0  0  0  0  0  0  0  0  0
   -0.8670    0.8870   -0.2610 C   0  0  0  0  0  0  0  0  0  0  0  0
    1.8200   -6.2160   -0.0440 N   0  0  0  0  0  0  0  0  0  0  0  0
    0.1400    0.0630    0.2120 N   0  0  0  0  0  0  0  0  0  0  0  0
   -0.7000   -6.6730    0.0450 S   0  0  0  0  0  0  0  0  0  0  0  0
   -0.7100    2.3330   -0.0990 C   0  0  0  0  0  0  0  0  0  0  0  0
    0.4880   -4.1390    0.0720 C   0  0  0  0  0  0  0  0  0  0  0  0
    1.6600   -7.5630   -0.0780 C   0  0  0  0  0  0  0  0  0  0  0  0
   -0.4650    5.1250    0.2300 C   0  0  0  0  0  0  0  0  0  0  0  0
   -1.8470    0.3770   -0.7910 O   0  0  0  0  0  0  0  0  0  0  0  0
    0.3740   -7.9960   -0.0390 C   0  0  0  0  0  0  0  0  0  0  0  0
   -0.3400    6.5260    0.4030 N   0  0  0  0  0  0  0  0  0  0  0  0
   -1.8450    3.1570   -0.0630 C   0  0  0  0  0  0  0  0  0  0  0  0
    0.5540    2.9370    0.0220 C   0  0  0  0  0  0  0  0  0  0  0  0
   -1.7310    4.5300    0.1040 C   0  0  0  0  0  0  0  0  0  0  0  0
    0.6770    4.3100    0.1910 C   0  0  0  0  0  0  0  0  0  0  0  0
    0.2110   -1.3460    0.1540 C   0  0  0  0  0  0  0  0  0  0  0  0
   -0.7780   -3.5420    0.2140 C   0  0  0  0  0  0  0  0  0  0  0  0
    1.6100   -3.2960   -0.0200 C   0  0  0  0  0  0  0  0  0  0  0  0
   -0.9190   -2.1600    0.2580 C   0  0  0  0  0  0  0  0  0  0  0  0
    1.4770   -1.9140    0.0210 C   0  0  0  0  0  0  0  0  0  0  0  0
   -1.5090    7.4060    0.2230 C   0  0  0  0  0  0  0  0  0  0  0  0
    0.9570    7.1880    0.1690 C   0  0  0  0  0  0  0  0  0  0  0  0
  1  3  2  0  0  0  0
  1  5  1  0  0  0  0
  1  7  1  0  0  0  0
  2  4  1  0  0  0  0
  2  6  1  0  0  0  0
  2 10  2  0  0  0  0
  3  8  1  0  0  0  0
  4 17  1  0  0  0  0
  5 11  1  0  0  0  0
  6 13  2  0  0  0  0
  6 14  1  0  0  0  0
  7 18  2  0  0  0  0
  7 19  1  0  0  0  0
  8 11  2  0  0  0  0
  9 12  1  0  0  0  0
  9 15  2  0  0  0  0
  9 16  1  0  0  0  0
 12 22  1  0  0  0  0
 12 23  1  0  0  0  0
 13 15  1  0  0  0  0
 14 16  2  0  0  0  0
 17 20  2  0  0  0  0
 17 21  1  0  0  0  0
 18 20  1  0  0  0  0
 19 21  2  0  0  0  0
M  END
>  <NScode>
NS-016108923-0000

>  <a_acc>
2

>  <a_don>
1

>  <chiral>
0

>  <opr_nrot>
4

>  <Weight>
323.41998

>  <druglike>
1

>  <lip_druglike>
1

>  <lip_violation>
0

>  <logS>
-4.8375702

$$$$
