NS-012383047-0001
  MOE2022           3D

 27 29  0  0  1  0  0  0  0  0999 V2000
    6.3830    3.2210    0.4540 C   0  0  0  0  0  0  0  0  0  0  0  0
    6.4870    1.7850   -0.0740 C   0  0  3  0  0  0  0  0  0  0  0  0
    5.3390    0.9310    0.4200 N   0  3  0  0  0  0  0  0  0  0  0  0
    3.9930    1.1010   -0.1780 C   0  0  0  0  0  0  0  0  0  0  0  0
    3.0160   -0.0520    0.1700 C   0  0  0  0  0  0  0  0  0  0  0  0
    2.5310    0.1380    1.6330 C   0  0  0  0  0  0  0  0  0  0  0  0
    1.6940    1.4100    1.8520 C   0  0  0  0  0  0  0  0  0  0  0  0
    0.4890    1.4110    0.9000 C   0  0  0  0  0  0  0  0  0  0  0  0
    0.9090    1.2450   -0.5690 C   0  0  0  0  0  0  0  0  0  0  0  0
    1.7810   -0.0100   -0.7640 C   0  0  0  0  0  0  0  0  0  0  0  0
    3.8400   -1.3290    0.0260 N   0  0  0  0  0  0  0  0  0  0  0  0
    3.2560   -2.5490    0.6830 C   0  0  0  0  0  0  0  0  0  0  0  0
    4.1460   -3.8000    0.5090 C   0  0  0  0  0  0  0  0  0  0  0  0
    4.4250   -4.0690   -0.8610 O   0  0  0  0  0  0  0  0  0  0  0  0
    5.0470   -2.9560   -1.4900 C   0  0  0  0  0  0  0  0  0  0  0  0
    4.1530   -1.7040   -1.3970 C   0  0  0  0  0  0  0  0  0  0  0  0
    7.8680    1.1720    0.2120 C   0  0  0  0  0  0  0  0  0  0  0  0
    8.0180    0.4070    1.1440 O   0  0  0  0  0  0  0  0  0  0  0  0
    8.9370    1.4530   -0.6020 N   0  0  0  0  0  0  0  0  0  0  0  0
   10.1510    0.7200   -0.5330 C   0  0  0  0  0  0  0  0  0  0  0  0
   11.2860    1.3590   -0.0340 C   0  0  0  0  0  0  0  0  0  0  0  0
   12.4850    0.6530    0.0510 C   0  0  0  0  0  0  0  0  0  0  0  0
   12.5150   -0.6740   -0.3680 C   0  0  0  0  0  0  0  0  0  0  0  0
   13.6740   -1.3500   -0.2830 F   0  0  0  0  0  0  0  0  0  0  0  0
   11.3980   -1.3270   -0.8740 C   0  0  0  0  0  0  0  0  0  0  0  0
   10.1980   -0.6240   -0.9650 C   0  0  0  0  0  0  0  0  0  0  0  0
    8.7950   -1.4080   -1.6300 Cl  0  0  0  0  0  0  0  0  0  0  0  0
  1  2  1  0  0  0  0
  2  3  1  0  0  0  0
  2 17  1  0  0  0  0
  3  4  1  0  0  0  0
  4  5  1  0  0  0  0
  5  6  1  0  0  0  0
  5 10  1  0  0  0  0
  5 11  1  0  0  0  0
  6  7  1  0  0  0  0
  7  8  1  0  0  0  0
  8  9  1  0  0  0  0
  9 10  1  0  0  0  0
 11 12  1  0  0  0  0
 11 16  1  0  0  0  0
 12 13  1  0  0  0  0
 13 14  1  0  0  0  0
 14 15  1  0  0  0  0
 15 16  1  0  0  0  0
 17 18  2  0  0  0  0
 17 19  1  0  0  0  0
 19 20  1  0  0  0  0
 20 21  1  0  0  0  0
 20 26  2  0  0  0  0
 21 22  2  0  0  0  0
 22 23  1  0  0  0  0
 23 24  1  0  0  0  0
 23 25  2  0  0  0  0
 25 26  1  0  0  0  0
 26 27  1  0  0  0  0
M  CHG  1   3   1
M  END
>  <NScode>
NS-012383047-0001

>  <a_acc>
4

>  <a_don>
2

>  <chiral>
1

>  <opr_nrot>
10

>  <Weight>
397.922

>  <druglike>
1

>  <lip_druglike>
1

>  <lip_violation>
0

>  <logS>
-4.3709002

$$$$
