NS-020100558-0000
  MOE2022           3D

 24 26  0  0  0  0  0  0  0  0999 V2000
  -10.0350   -0.9030    0.3000 C   0  0  0  0  0  0  0  0  0  0  0  0
   -9.4170    0.2370    0.1350 N   0  0  0  0  0  0  0  0  0  0  0  0
   -9.1450   -1.9430    0.2990 N   0  0  0  0  0  0  0  0  0  0  0  0
  -11.5320   -1.1920    0.4900 C   0  0  0  0  0  0  0  0  0  0  0  0
   -8.0790   -0.0740    0.0200 C   0  0  0  0  0  0  0  0  0  0  0  0
   -4.5250    1.0540   -0.4180 C   0  0  0  0  0  0  0  0  0  0  0  0
   -7.9000   -1.4380    0.1230 C   0  0  0  0  0  0  0  0  0  0  0  0
   -3.3070    0.6240    0.0790 N   0  0  0  0  0  0  0  0  0  0  0  0
   -5.6880    0.1830   -0.2410 C   0  0  0  0  0  0  0  0  0  0  0  0
   -6.9650    0.7480   -0.1700 C   0  0  0  0  0  0  0  0  0  0  0  0
   -2.0580    1.2920    0.0380 C   0  0  0  0  0  0  0  0  0  0  0  0
   -4.5870    2.1400   -0.9790 O   0  0  0  0  0  0  0  0  0  0  0  0
   -6.6460   -2.0540    0.0430 C   0  0  0  0  0  0  0  0  0  0  0  0
   -0.9170    0.4930   -0.0220 C   0  0  0  0  0  0  0  0  0  0  0  0
   -5.5450   -1.2360   -0.1430 C   0  0  0  0  0  0  0  0  0  0  0  0
  -12.3000   -0.6630   -0.4760 F   0  0  0  0  0  0  0  0  0  0  0  0
  -11.7790   -2.5230    0.4790 F   0  0  0  0  0  0  0  0  0  0  0  0
  -12.0030   -0.7400    1.6640 F   0  0  0  0  0  0  0  0  0  0  0  0
    0.3330    1.1000   -0.0340 C   0  0  0  0  0  0  0  0  0  0  0  0
    1.4310    0.2700   -0.0940 O   0  0  0  0  0  0  0  0  0  0  0  0
   -0.6890    3.2800    0.0770 C   0  0  0  0  0  0  0  0  0  0  0  0
   -1.9490    2.6860    0.0940 C   0  0  0  0  0  0  0  0  0  0  0  0
    0.4590    2.4920    0.0130 C   0  0  0  0  0  0  0  0  0  0  0  0
    2.8040    0.7200   -0.1280 C   0  0  0  0  0  0  0  0  0  0  0  0
  1  2  2  0  0  0  0
  1  3  1  0  0  0  0
  1  4  1  0  0  0  0
  2  5  1  0  0  0  0
  3  7  1  0  0  0  0
  4 16  1  0  0  0  0
  4 17  1  0  0  0  0
  4 18  1  0  0  0  0
  5  7  1  0  0  0  0
  5 10  2  0  0  0  0
  6  8  1  0  0  0  0
  6  9  1  0  0  0  0
  6 12  2  0  0  0  0
  7 13  2  0  0  0  0
  8 11  1  0  0  0  0
  9 10  1  0  0  0  0
  9 15  2  0  0  0  0
 11 14  2  0  0  0  0
 11 22  1  0  0  0  0
 13 15  1  0  0  0  0
 14 19  1  0  0  0  0
 19 20  1  0  0  0  0
 19 23  2  0  0  0  0
 20 24  1  0  0  0  0
 21 22  2  0  0  0  0
 21 23  1  0  0  0  0
M  END
>  <NScode>
NS-020100558-0000

>  <a_acc>
4

>  <a_don>
3

>  <chiral>
0

>  <opr_nrot>
3

>  <Weight>
335.285

>  <druglike>
1

>  <lip_druglike>
1

>  <lip_violation>
0

>  <logS>
-4.7133198

$$$$
