NS-014042233-0000
  MOE2022           3D

 24 26  0  0  0  0  0  0  0  0999 V2000
    1.2680    1.7880   -0.3370 N   0  0  0  0  0  0  0  0  0  0  0  0
   -4.7540   -4.2010    0.6810 N   0  3  0  0  0  0  0  0  0  0  0  0
    1.1970    4.3420    0.8900 N   0  0  0  0  0  0  0  0  0  0  0  0
    2.4930    2.5400   -0.1650 C   0  0  0  0  0  0  0  0  0  0  0  0
    1.0230    0.9070   -1.3920 C   0  0  0  0  0  0  0  0  0  0  0  0
    0.0910    3.5660    0.9950 C   0  0  0  0  0  0  0  0  0  0  0  0
    2.4310    3.8190    0.4290 C   0  0  0  0  0  0  0  0  0  0  0  0
    0.2260    2.0870    0.6810 C   0  0  0  0  0  0  0  0  0  0  0  0
   -3.6440   -3.2940    0.4200 C   0  0  0  0  0  0  0  0  0  0  0  0
   -4.8390   -4.7830    1.7500 O   0  5  0  0  0  0  0  0  0  0  0  0
   -5.6130   -4.3870   -0.1660 O   0  0  0  0  0  0  0  0  0  0  0  0
   -0.2580    0.0920   -1.4470 C   0  0  0  0  0  0  0  0  0  0  0  0
   -0.9450    4.1030    1.3230 O   0  0  0  0  0  0  0  0  0  0  0  0
    1.8320    0.8040   -2.2930 O   0  0  0  0  0  0  0  0  0  0  0  0
   -3.6400   -2.5470   -0.7670 C   0  0  0  0  0  0  0  0  0  0  0  0
   -2.6110   -3.1920    1.3610 C   0  0  0  0  0  0  0  0  0  0  0  0
   -0.4770   -0.7410   -0.2640 O   0  0  0  0  0  0  0  0  0  0  0  0
   -1.5450   -1.5770   -0.0740 C   0  0  0  0  0  0  0  0  0  0  0  0
   -1.5550   -2.3240    1.1050 C   0  0  0  0  0  0  0  0  0  0  0  0
   -2.5790   -1.6820   -1.0140 C   0  0  0  0  0  0  0  0  0  0  0  0
    3.7360    2.0240   -0.5430 C   0  0  0  0  0  0  0  0  0  0  0  0
    3.5820    4.5860    0.5910 C   0  0  0  0  0  0  0  0  0  0  0  0
    4.8870    2.7920   -0.3700 C   0  0  0  0  0  0  0  0  0  0  0  0
    4.8110    4.0680    0.1870 C   0  0  0  0  0  0  0  0  0  0  0  0
  1  4  1  0  0  0  0
  1  5  1  0  0  0  0
  1  8  1  0  0  0  0
  2  9  1  0  0  0  0
  2 10  1  0  0  0  0
  2 11  2  0  0  0  0
  3  6  1  0  0  0  0
  3  7  1  0  0  0  0
  4  7  2  0  0  0  0
  4 21  1  0  0  0  0
  5 12  1  0  0  0  0
  5 14  2  0  0  0  0
  6  8  1  0  0  0  0
  6 13  2  0  0  0  0
  7 22  1  0  0  0  0
  9 15  1  0  0  0  0
  9 16  2  0  0  0  0
 12 17  1  0  0  0  0
 15 20  2  0  0  0  0
 16 19  1  0  0  0  0
 17 18  1  0  0  0  0
 18 19  2  0  0  0  0
 18 20  1  0  0  0  0
 21 23  2  0  0  0  0
 22 24  2  0  0  0  0
 23 24  1  0  0  0  0
M  CHG  1   2   1
M  CHG  1  10  -1
M  END
>  <NScode>
NS-014042233-0000

>  <a_acc>
3

>  <a_don>
1

>  <chiral>
0

>  <opr_nrot>
4

>  <Weight>
327.29599

>  <druglike>
1

>  <lip_druglike>
1

>  <lip_violation>
0

>  <logS>
-4.4668598

$$$$
