NS-050091278-0000
  MOE2022           3D

 25 28  0  0  0  0  0  0  0  0999 V2000
   -0.7140   -4.9610   -2.4220 C   0  0  0  0  0  0  0  0  0  0  0  0
   -0.9460   -4.0020   -1.3640 O   0  0  0  0  0  0  0  0  0  0  0  0
   -2.1360   -3.1800   -1.4780 C   0  0  0  0  0  0  0  0  0  0  0  0
   -2.3160   -2.2560   -0.2620 C   0  0  0  0  0  0  0  0  0  0  0  0
   -3.2760   -1.0590   -0.5480 C   0  0  0  0  0  0  0  0  0  0  0  0
   -2.1640   -0.1070   -0.4040 N   0  0  0  0  0  0  0  0  0  0  0  0
   -1.1950   -1.1840   -0.1270 C   0  0  0  0  0  0  0  0  0  0  0  0
   -1.9840    1.0960   -1.0350 C   0  0  0  0  0  0  0  0  0  0  0  0
   -2.9230    1.5050   -1.7120 O   0  0  0  0  0  0  0  0  0  0  0  0
   -0.7170    1.8190   -0.9080 C   0  0  0  0  0  0  0  0  0  0  0  0
   -0.2660    2.6320   -1.9630 C   0  0  0  0  0  0  0  0  0  0  0  0
    0.9330    3.3260   -1.8650 C   0  0  0  0  0  0  0  0  0  0  0  0
    1.6940    3.2110   -0.7000 C   0  0  0  0  0  0  0  0  0  0  0  0
    2.8790    3.9210   -0.5650 N   0  0  0  0  0  0  0  0  0  0  0  0
    3.4390    4.2780    0.6350 C   0  0  0  0  0  0  0  0  0  0  0  0
    4.1440    5.2970    0.4800 O   0  5  0  0  0  0  0  0  0  0  0  0
    3.2270    3.6530    1.7440 N   0  0  0  0  0  0  0  0  0  0  0  0
    2.3430    2.3130    1.7830 S   0  0  0  0  0  0  0  0  0  0  0  0
    1.4980    2.3180    2.9440 O   0  0  0  0  0  0  0  0  0  0  0  0
    3.1820    1.1600    1.6230 O   0  0  0  0  0  0  0  0  0  0  0  0
    1.2820    2.4060    0.3540 C   0  0  0  0  0  0  0  0  0  0  0  0
    0.0680    1.7310    0.2560 C   0  0  0  0  0  0  0  0  0  0  0  0
   -2.5570   -3.0770    1.0320 C   0  0  0  0  0  0  0  0  0  0  0  0
   -3.9510   -3.4220    1.4880 C   0  0  0  0  0  0  0  0  0  0  0  0
   -3.1250   -2.4530    2.2800 C   0  0  0  0  0  0  0  0  0  0  0  0
  1  2  1  0  0  0  0
  2  3  1  0  0  0  0
  3  4  1  0  0  0  0
  4  5  1  0  0  0  0
  4  7  1  0  0  0  0
  4 23  1  0  0  0  0
  5  6  1  0  0  0  0
  6  7  1  0  0  0  0
  6  8  1  0  0  0  0
  8  9  2  0  0  0  0
  8 10  1  0  0  0  0
 10 11  1  0  0  0  0
 10 22  2  0  0  0  0
 11 12  2  0  0  0  0
 12 13  1  0  0  0  0
 13 14  1  0  0  0  0
 13 21  2  0  0  0  0
 14 15  1  0  0  0  0
 15 16  1  0  0  0  0
 15 17  2  0  0  0  0
 17 18  1  0  0  0  0
 18 19  2  0  0  0  0
 18 20  2  0  0  0  0
 18 21  1  0  0  0  0
 21 22  1  0  0  0  0
 23 24  1  0  0  0  0
 23 25  1  0  0  0  0
 24 25  1  0  0  0  0
M  CHG  1  16  -1
M  END
>  <NScode>
NS-050091278-0000

>  <a_acc>
5

>  <a_don>
2

>  <chiral>
0

>  <opr_nrot>
4

>  <Weight>
365.41

>  <druglike>
1

>  <lip_druglike>
1

>  <lip_violation>
0

>  <logS>
-3.3677599

$$$$
