NS-007458836-0000
  MOE2022           3D

 19 20  0  0  0  0  0  0  0  0999 V2000
    3.8070    0.8230    0.4560 C   0  0  0  0  0  0  0  0  0  0  0  0
    2.6440    1.6330    0.7740 C   0  0  0  0  0  0  0  0  0  0  0  0
    2.2480    2.7580   -0.0760 C   0  0  0  0  0  0  0  0  0  0  0  0
    3.6730   -0.4890   -0.0280 C   0  0  0  0  0  0  0  0  0  0  0  0
    5.1060    1.3320    0.6200 C   0  0  0  0  0  0  0  0  0  0  0  0
    1.9930    1.3750    1.7840 O   0  0  0  0  0  0  0  0  0  0  0  0
    2.8440    2.9730   -1.3330 C   0  0  0  0  0  0  0  0  0  0  0  0
    1.2510    3.6550    0.3500 C   0  0  0  0  0  0  0  0  0  0  0  0
    1.4730    4.9260   -1.6860 C   0  0  0  0  0  0  0  0  0  0  0  0
    0.8670    4.7280   -0.4440 C   0  0  0  0  0  0  0  0  0  0  0  0
    2.4620    4.0460   -2.1290 C   0  0  0  0  0  0  0  0  0  0  0  0
    0.9970    6.2660   -2.6800 Cl  0  0  0  0  0  0  0  0  0  0  0  0
    5.2410    2.6340    1.0500 O   0  0  0  0  0  0  0  0  0  0  0  0
    2.4040   -0.9730   -0.2550 O   0  0  0  0  0  0  0  0  0  0  0  0
    6.0690   -0.7570   -0.1050 C   0  0  0  0  0  0  0  0  0  0  0  0
    6.2310    0.5500    0.3490 C   0  0  0  0  0  0  0  0  0  0  0  0
    4.7930   -1.2800   -0.2980 C   0  0  0  0  0  0  0  0  0  0  0  0
    6.4850    3.3080    1.3480 C   0  0  0  0  0  0  0  0  0  0  0  0
    2.0610   -2.3320   -0.6050 C   0  0  0  0  0  0  0  0  0  0  0  0
  1  2  1  0  0  0  0
  1  4  1  0  0  0  0
  1  5  2  0  0  0  0
  2  3  1  0  0  0  0
  2  6  2  0  0  0  0
  3  7  1  0  0  0  0
  3  8  2  0  0  0  0
  4 14  1  0  0  0  0
  4 17  2  0  0  0  0
  5 13  1  0  0  0  0
  5 16  1  0  0  0  0
  7 11  2  0  0  0  0
  8 10  1  0  0  0  0
  9 10  2  0  0  0  0
  9 11  1  0  0  0  0
  9 12  1  0  0  0  0
 13 18  1  0  0  0  0
 14 19  1  0  0  0  0
 15 16  2  0  0  0  0
 15 17  1  0  0  0  0
M  END
>  <NScode>
NS-007458836-0000

>  <a_acc>
3

>  <a_don>
0

>  <chiral>
0

>  <opr_nrot>
4

>  <Weight>
276.71899

>  <druglike>
1

>  <lip_druglike>
1

>  <lip_violation>
0

>  <logS>
-4.2927399

$$$$
