NS-023513760-0000
  MOE2022           3D

 16 17  0  0  0  0  0  0  0  0999 V2000
    5.6090    4.3100   -0.9020 C   0  0  0  0  0  0  0  0  0  0  0  0
    4.4490    3.5660   -0.4670 O   0  0  0  0  0  0  0  0  0  0  0  0
    4.4290    2.2430   -0.0670 C   0  0  0  0  0  0  0  0  0  0  0  0
    5.6150    1.5080   -0.0070 C   0  0  0  0  0  0  0  0  0  0  0  0
    5.5790    0.1760    0.3940 C   0  0  0  0  0  0  0  0  0  0  0  0
    4.3680   -0.4150    0.7350 C   0  0  0  0  0  0  0  0  0  0  0  0
    3.1830    0.3230    0.6770 C   0  0  0  0  0  0  0  0  0  0  0  0
    1.7050   -0.4720    1.1360 Cl  0  0  0  0  0  0  0  0  0  0  0  0
    3.1890    1.6700    0.2670 C   0  0  0  0  0  0  0  0  0  0  0  0
    1.9540    2.4440    0.1940 C   0  0  0  0  0  0  0  0  0  0  0  0
    0.9720    2.1430   -0.7620 C   0  0  0  0  0  0  0  0  0  0  0  0
   -0.2080    2.8720   -0.8270 C   0  0  0  0  0  0  0  0  0  0  0  0
   -0.4190    3.9180    0.0710 C   0  0  0  0  0  0  0  0  0  0  0  0
   -1.6030    4.6350    0.0220 N   0  0  0  0  0  0  0  0  0  0  0  0
    0.5480    4.2450    1.0200 C   0  0  0  0  0  0  0  0  0  0  0  0
    1.7250    3.5100    1.0780 C   0  0  0  0  0  0  0  0  0  0  0  0
  1  2  1  0  0  0  0
  2  3  1  0  0  0  0
  3  4  1  0  0  0  0
  3  9  2  0  0  0  0
  4  5  2  0  0  0  0
  5  6  1  0  0  0  0
  6  7  2  0  0  0  0
  7  8  1  0  0  0  0
  7  9  1  0  0  0  0
  9 10  1  0  0  0  0
 10 11  1  0  0  0  0
 10 16  2  0  0  0  0
 11 12  2  0  0  0  0
 12 13  1  0  0  0  0
 13 14  1  0  0  0  0
 13 15  2  0  0  0  0
 15 16  1  0  0  0  0
M  END
>  <NScode>
NS-023513760-0000

>  <a_acc>
1

>  <a_don>
1

>  <chiral>
0

>  <opr_nrot>
2

>  <Weight>
233.698

>  <druglike>
1

>  <lip_druglike>
1

>  <lip_violation>
0

>  <logS>
-4.3168101

$$$$
