NS-012921564-0000
  MOE2022           3D

 25 26  0  0  0  0  0  0  0  0999 V2000
    2.3690   -0.9990    0.4520 C   0  0  0  0  0  0  0  0  0  0  0  0
    1.8150   -2.1470   -0.2580 C   0  0  0  0  0  0  0  0  0  0  0  0
    2.6710    0.1710   -0.2320 N   0  0  0  0  0  0  0  0  0  0  0  0
    0.7110    0.9020   -3.4920 C   0  0  0  0  0  0  0  0  0  0  0  0
    0.9640    0.7370   -2.0040 C   0  0  0  0  0  0  0  0  0  0  0  0
    0.4380   -2.4190   -0.2280 C   0  0  0  0  0  0  0  0  0  0  0  0
    2.4080    0.3300   -1.6740 C   0  0  0  0  0  0  0  0  0  0  0  0
    2.6100   -1.0370    1.6560 O   0  0  0  0  0  0  0  0  0  0  0  0
    3.0890    1.3740    0.5150 C   0  0  0  0  0  0  0  0  0  0  0  0
    1.5590    0.6400   -4.3290 O   0  0  0  0  0  0  0  0  0  0  0  0
   -0.4660    1.3560   -3.8760 N   0  0  0  0  0  0  0  0  0  0  0  0
    2.6540   -3.0130   -0.9720 C   0  0  0  0  0  0  0  0  0  0  0  0
    1.9560    2.3540    0.7480 C   0  0  0  0  0  0  0  0  0  0  0  0
   -0.3820   -1.5500    0.4610 O   0  0  0  0  0  0  0  0  0  0  0  0
   -0.0890   -3.5270   -0.8950 C   0  0  0  0  0  0  0  0  0  0  0  0
   -1.7390   -1.7850    0.8990 C   0  0  0  0  0  0  0  0  0  0  0  0
    2.0000    3.6380    0.2020 C   0  0  0  0  0  0  0  0  0  0  0  0
    0.8510    1.9720    1.5070 C   0  0  0  0  0  0  0  0  0  0  0  0
   -1.8040   -2.8040    2.0400 C   0  0  0  0  0  0  0  0  0  0  0  0
    2.1310   -4.1150   -1.6410 C   0  0  0  0  0  0  0  0  0  0  0  0
   -3.2440   -3.0170    2.5230 C   0  0  0  0  0  0  0  0  0  0  0  0
    0.7610   -4.3710   -1.6010 C   0  0  0  0  0  0  0  0  0  0  0  0
   -0.1990    2.8600    1.7190 C   0  0  0  0  0  0  0  0  0  0  0  0
    0.9500    4.5270    0.4140 C   0  0  0  0  0  0  0  0  0  0  0  0
   -0.1500    4.1380    1.1720 C   0  0  0  0  0  0  0  0  0  0  0  0
  1  2  1  0  0  0  0
  1  3  1  0  0  0  0
  1  8  2  0  0  0  0
  2  6  2  0  0  0  0
  2 12  1  0  0  0  0
  3  7  1  0  0  0  0
  3  9  1  0  0  0  0
  4  5  1  0  0  0  0
  4 10  2  0  0  0  0
  4 11  1  0  0  0  0
  5  7  1  0  0  0  0
  6 14  1  0  0  0  0
  6 15  1  0  0  0  0
  9 13  1  0  0  0  0
 12 20  2  0  0  0  0
 13 17  1  0  0  0  0
 13 18  2  0  0  0  0
 14 16  1  0  0  0  0
 15 22  2  0  0  0  0
 16 19  1  0  0  0  0
 17 24  2  0  0  0  0
 18 23  1  0  0  0  0
 19 21  1  0  0  0  0
 20 22  1  0  0  0  0
 23 25  2  0  0  0  0
 24 25  1  0  0  0  0
M  END
>  <NScode>
NS-012921564-0000

>  <a_acc>
3

>  <a_don>
1

>  <chiral>
0

>  <opr_nrot>
9

>  <Weight>
340.423

>  <druglike>
1

>  <lip_druglike>
1

>  <lip_violation>
0

>  <logS>
-3.93276

$$$$
