NS-020056380-0000
  MOE2022           3D

 25 27  0  0  0  0  0  0  0  0999 V2000
   -0.5820    5.3010    0.2720 N   0  0  0  0  0  0  0  0  0  0  0  0
   -1.6810    4.5530    0.5030 N   0  0  0  0  0  0  0  0  0  0  0  0
    0.4040    4.4390    0.1110 C   0  0  0  0  0  0  0  0  0  0  0  0
   -0.0890    3.1370    0.2320 C   0  0  0  0  0  0  0  0  0  0  0  0
   -1.4140    3.2220    0.4740 C   0  0  0  0  0  0  0  0  0  0  0  0
   -6.0950    5.1860   -0.1140 C   0  0  0  0  0  0  0  0  0  0  0  0
   -9.4040   10.1640    0.1910 N   0  0  0  0  0  0  0  0  0  0  0  0
   -7.4570    5.7350   -0.0860 C   0  0  0  0  0  0  0  0  0  0  0  0
   -9.2300    9.0380    0.1190 C   0  0  0  0  0  0  0  0  0  0  0  0
    1.7860    4.8350   -0.1590 C   0  0  0  0  0  0  0  0  0  0  0  0
   -7.6970    7.1150    0.0110 C   0  0  0  0  0  0  0  0  0  0  0  0
   -5.8370    4.0250    0.1780 O   0  0  0  0  0  0  0  0  0  0  0  0
    4.4230    5.6210   -0.6770 N   0  0  0  0  0  0  0  0  0  0  0  0
   -2.9790    5.1700    0.6840 C   0  0  0  0  0  0  0  0  0  0  0  0
   -5.0440    5.9820   -0.4920 N   0  0  0  0  0  0  0  0  0  0  0  0
   -9.0000    7.6180    0.0260 C   0  0  0  0  0  0  0  0  0  0  0  0
   -3.6780    5.4610   -0.6490 C   0  0  0  0  0  0  0  0  0  0  0  0
   -2.4530    2.1380    0.6790 C   0  0  0  0  0  0  0  0  0  0  0  0
   -8.5560    4.8670   -0.1500 C   0  0  0  0  0  0  0  0  0  0  0  0
   -9.8550    5.3610   -0.1330 C   0  0  0  0  0  0  0  0  0  0  0  0
    4.1000    4.3300   -0.6450 C   0  0  0  0  0  0  0  0  0  0  0  0
    3.4790    6.5350   -0.4610 C   0  0  0  0  0  0  0  0  0  0  0  0
    2.1630    6.1790   -0.2010 C   0  0  0  0  0  0  0  0  0  0  0  0
    2.8030    3.9040   -0.3910 C   0  0  0  0  0  0  0  0  0  0  0  0
  -10.0780    6.7310   -0.0470 C   0  0  0  0  0  0  0  0  0  0  0  0
  1  2  1  0  0  0  0
  1  3  2  0  0  0  0
  2  5  1  0  0  0  0
  2 14  1  0  0  0  0
  3  4  1  0  0  0  0
  3 10  1  0  0  0  0
  4  5  2  0  0  0  0
  5 18  1  0  0  0  0
  6  8  1  0  0  0  0
  6 12  2  0  0  0  0
  6 15  1  0  0  0  0
  7  9  3  0  0  0  0
  8 11  2  0  0  0  0
  8 19  1  0  0  0  0
  9 16  1  0  0  0  0
 10 23  2  0  0  0  0
 10 24  1  0  0  0  0
 11 16  1  0  0  0  0
 13 21  1  0  0  0  0
 13 22  2  0  0  0  0
 14 17  1  0  0  0  0
 15 17  1  0  0  0  0
 16 25  2  0  0  0  0
 19 20  2  0  0  0  0
 20 25  1  0  0  0  0
 21 24  2  0  0  0  0
 22 23  1  0  0  0  0
M  END
>  <NScode>
NS-020056380-0000

>  <a_acc>
4

>  <a_don>
1

>  <chiral>
0

>  <opr_nrot>
6

>  <Weight>
331.379

>  <druglike>
1

>  <lip_druglike>
1

>  <lip_violation>
0

>  <logS>
-3.4567599

$$$$
