NS-019970085-0000
  MOE2022           3D

 21 22  0  0  1  0  0  0  0  0999 V2000
    0.7060   -0.8060   -1.1890 S   0  0  0  0  0  0  0  0  0  0  0  0
    1.3200    2.3740    0.1310 C   0  0  0  0  0  0  0  0  0  0  0  0
    0.0020    0.6310   -0.9900 N   0  0  0  0  0  0  0  0  0  0  0  0
    2.5140    2.0370   -0.3590 N   0  0  0  0  0  0  0  0  0  0  0  0
   -0.0960   -1.7660   -0.1360 N   0  0  0  0  0  0  0  0  0  0  0  0
    0.1990    1.3460    0.2570 C   0  0  3  0  0  0  0  0  0  0  0  0
    1.3530    3.6250    0.4510 N   0  0  0  0  0  0  0  0  0  0  0  0
    3.3410    3.0830   -0.3620 N   0  0  0  0  0  0  0  0  0  0  0  0
    2.6000    4.0180    0.1290 C   0  0  0  0  0  0  0  0  0  0  0  0
   -1.4580   -2.1950   -0.5170 C   0  0  0  0  0  0  0  0  0  0  0  0
    2.0610   -0.6960   -0.7770 O   0  0  0  0  0  0  0  0  0  0  0  0
    0.4580   -1.2630   -2.5030 O   0  0  0  0  0  0  0  0  0  0  0  0
   -1.4560   -4.0210    1.1010 O   0  0  0  0  0  0  0  0  0  0  0  0
    0.6370   -2.9190    0.4170 C   0  0  0  0  0  0  0  0  0  0  0  0
   -1.1390    1.9620    0.7660 C   0  0  0  0  0  0  0  0  0  0  0  0
   -2.2100   -2.9080    0.6330 C   0  0  3  0  0  0  0  0  0  0  0  0
   -0.1510   -3.6370    1.5340 C   0  0  0  0  0  0  0  0  0  0  0  0
    3.0860    5.4250    0.3330 C   0  0  0  0  0  0  0  0  0  0  0  0
   -2.1430    0.9040    1.2550 C   0  0  0  0  0  0  0  0  0  0  0  0
   -1.8450    2.8730   -0.2600 C   0  0  0  0  0  0  0  0  0  0  0  0
   -3.5780   -3.4370    0.2070 C   0  0  0  0  0  0  0  0  0  0  0  0
  1  3  1  0  0  0  0
  1  5  1  0  0  0  0
  1 11  2  0  0  0  0
  1 12  2  0  0  0  0
  2  4  1  0  0  0  0
  2  6  1  0  0  0  0
  2  7  2  0  0  0  0
  3  6  1  0  0  0  0
  4  8  1  0  0  0  0
  5 10  1  0  0  0  0
  5 14  1  0  0  0  0
  6 15  1  0  0  0  0
  7  9  1  0  0  0  0
  8  9  2  0  0  0  0
  9 18  1  0  0  0  0
 10 16  1  0  0  0  0
 13 16  1  0  0  0  0
 13 17  1  0  0  0  0
 14 17  1  0  0  0  0
 15 19  1  0  0  0  0
 15 20  1  0  0  0  0
 16 21  1  0  0  0  0
M  END
>  <NScode>
NS-019970085-0000

>  <a_acc>
6

>  <a_don>
4

>  <chiral>
2

>  <opr_nrot>
5

>  <Weight>
317.414

>  <druglike>
1

>  <lip_druglike>
1

>  <lip_violation>
0

>  <logS>
-0.71182001

$$$$
