NS-019205725-0000
  MOE2022           3D

 24 25  0  0  1  0  0  0  0  0999 V2000
   -5.8270    4.8360    0.4590 C   0  0  0  0  0  0  0  0  0  0  0  0
   -6.4680    8.9890    2.8670 C   0  0  0  0  0  0  0  0  0  0  0  0
   -5.8600    7.7560    2.6400 C   0  0  0  0  0  0  0  0  0  0  0  0
   -5.8140    5.5900    1.5960 N   0  0  0  0  0  0  0  0  0  0  0  0
   -5.1330    3.6780    0.5750 N   0  0  0  0  0  0  0  0  0  0  0  0
   -6.4660    6.8350    1.7850 C   0  0  0  0  0  0  0  0  0  0  0  0
   -7.6890    9.2990    2.2380 C   0  0  0  0  0  0  0  0  0  0  0  0
   -6.3900    5.1640   -0.5760 O   0  0  0  0  0  0  0  0  0  0  0  0
   -3.6670    2.8840   -1.3710 C   0  0  3  0  0  0  0  0  0  0  0  0
   -8.2890    8.3660    1.3920 C   0  0  0  0  0  0  0  0  0  0  0  0
   -4.9790    2.7400   -0.5600 C   0  0  0  0  0  0  0  0  0  0  0  0
   -5.6960   10.1190    3.9300 Cl  0  0  0  0  0  0  0  0  0  0  0  0
   -7.6840    7.1320    1.1650 C   0  0  0  0  0  0  0  0  0  0  0  0
   -8.4690   10.8230    2.4980 Cl  0  0  0  0  0  0  0  0  0  0  0  0
   -2.3940    2.8210   -0.5040 C   0  0  0  0  0  0  0  0  0  0  0  0
   -3.6100    1.8340   -2.3060 O   0  0  0  0  0  0  0  0  0  0  0  0
   -2.2350    1.5370    0.3260 C   0  0  0  0  0  0  0  0  0  0  0  0
   -0.9400    1.4990    1.1120 C   0  0  0  0  0  0  0  0  0  0  0  0
   -3.6660    4.1790   -2.1890 C   0  0  0  0  0  0  0  0  0  0  0  0
    0.2310    0.9970    0.5130 C   0  0  0  0  0  0  0  0  0  0  0  0
   -0.8960    1.9730    2.4380 C   0  0  0  0  0  0  0  0  0  0  0  0
    0.3100    1.9420    3.1590 C   0  0  0  0  0  0  0  0  0  0  0  0
    1.4380    0.9660    1.2350 C   0  0  0  0  0  0  0  0  0  0  0  0
    1.4770    1.4390    2.5580 C   0  0  0  0  0  0  0  0  0  0  0  0
  1  4  1  0  0  0  0
  1  5  1  0  0  0  0
  1  8  2  0  0  0  0
  2  3  2  0  0  0  0
  2  7  1  0  0  0  0
  2 12  1  0  0  0  0
  3  6  1  0  0  0  0
  4  6  1  0  0  0  0
  5 11  1  0  0  0  0
  6 13  2  0  0  0  0
  7 10  2  0  0  0  0
  7 14  1  0  0  0  0
  9 11  1  0  0  0  0
  9 15  1  0  0  0  0
  9 16  1  0  0  0  0
  9 19  1  0  0  0  0
 10 13  1  0  0  0  0
 15 17  1  0  0  0  0
 17 18  1  0  0  0  0
 18 20  1  0  0  0  0
 18 21  2  0  0  0  0
 20 23  2  0  0  0  0
 21 22  1  0  0  0  0
 22 24  2  0  0  0  0
 23 24  1  0  0  0  0
M  END
>  <NScode>
NS-019205725-0000

>  <a_acc>
2

>  <a_don>
3

>  <chiral>
1

>  <opr_nrot>
6

>  <Weight>
367.276

>  <druglike>
1

>  <lip_druglike>
1

>  <lip_violation>
0

>  <logS>
-5.0525799

$$$$
