NS-018434739-0000
  MOE2022           3D

 31 34  0  0  0  0  0  0  0  0999 V2000
   -4.4890    5.6620    0.6690 S   0  0  0  0  0  0  0  0  0  0  0  0
   -4.6000    4.3410   -0.3710 N   0  0  0  0  0  0  0  0  0  0  0  0
   -3.5390    3.4090   -0.5180 C   0  0  0  0  0  0  0  0  0  0  0  0
    4.7640   -3.8990    0.3390 N   0  0  0  0  0  0  0  0  0  0  0  0
    5.2690   -5.1550    0.5650 N   0  0  0  0  0  0  0  0  0  0  0  0
   -3.8220    2.0620   -0.8230 C   0  0  0  0  0  0  0  0  0  0  0  0
   -0.8120   -2.7590    0.1500 C   0  0  0  0  0  0  0  0  0  0  0  0
   -1.4390    1.5390   -0.7720 C   0  0  0  0  0  0  0  0  0  0  0  0
   -2.7810    1.1470   -0.9330 C   0  0  0  0  0  0  0  0  0  0  0  0
   -2.2030    3.8150   -0.3790 C   0  0  0  0  0  0  0  0  0  0  0  0
   -3.5420    6.5870    0.1620 O   0  0  0  0  0  0  0  0  0  0  0  0
   -5.7920    6.1640    0.9270 O   0  0  0  0  0  0  0  0  0  0  0  0
    3.3530   -3.6050    0.3190 C   0  0  0  0  0  0  0  0  0  0  0  0
   -0.3370    0.5900   -0.9010 C   0  0  0  0  0  0  0  0  0  0  0  0
   -1.2900   -1.6840   -0.5260 O   0  0  0  0  0  0  0  0  0  0  0  0
    5.7710   -3.0050    0.1300 C   0  0  0  0  0  0  0  0  0  0  0  0
    0.6200   -3.0420    0.2290 C   0  0  0  0  0  0  0  0  0  0  0  0
    6.9200   -3.7070    0.2320 C   0  0  0  0  0  0  0  0  0  0  0  0
   -1.1760    2.8910   -0.4940 C   0  0  0  0  0  0  0  0  0  0  0  0
   -1.6620   -3.4790    0.6380 O   0  0  0  0  0  0  0  0  0  0  0  0
   -0.5450   -0.8150   -1.4350 C   0  0  0  0  0  0  0  0  0  0  0  0
    6.5630   -5.0240    0.5010 C   0  0  0  0  0  0  0  0  0  0  0  0
    0.7960    0.8930   -0.5840 O   0  0  0  0  0  0  0  0  0  0  0  0
    2.4570   -4.6050   -0.0690 C   0  0  0  0  0  0  0  0  0  0  0  0
    2.9000   -2.3350    0.6900 C   0  0  0  0  0  0  0  0  0  0  0  0
    1.0970   -4.3200   -0.1090 C   0  0  0  0  0  0  0  0  0  0  0  0
    1.5380   -2.0630    0.6490 C   0  0  0  0  0  0  0  0  0  0  0  0
   -3.8610    4.9920    2.1880 C   0  0  0  0  0  0  0  0  0  0  0  0
   -5.9930    3.9380   -0.6130 C   0  0  0  0  0  0  0  0  0  0  0  0
   -5.2460    1.5870   -1.0230 C   0  0  0  0  0  0  0  0  0  0  0  0
   -6.1180    2.7260   -1.5330 C   0  0  0  0  0  0  0  0  0  0  0  0
  1  2  1  0  0  0  0
  1 11  2  0  0  0  0
  1 12  2  0  0  0  0
  1 28  1  0  0  0  0
  2  3  1  0  0  0  0
  2 29  1  0  0  0  0
  3  6  1  0  0  0  0
  3 10  2  0  0  0  0
  4  5  1  0  0  0  0
  4 13  1  0  0  0  0
  4 16  1  0  0  0  0
  5 22  2  0  0  0  0
  6  9  2  0  0  0  0
  6 30  1  0  0  0  0
  7 15  1  0  0  0  0
  7 17  1  0  0  0  0
  7 20  2  0  0  0  0
  8  9  1  0  0  0  0
  8 14  1  0  0  0  0
  8 19  2  0  0  0  0
 10 19  1  0  0  0  0
 13 24  2  0  0  0  0
 13 25  1  0  0  0  0
 14 21  1  0  0  0  0
 14 23  2  0  0  0  0
 15 21  1  0  0  0  0
 16 18  2  0  0  0  0
 17 26  2  0  0  0  0
 17 27  1  0  0  0  0
 18 22  1  0  0  0  0
 24 26  1  0  0  0  0
 25 27  2  0  0  0  0
 29 31  1  0  0  0  0
 30 31  1  0  0  0  0
M  END
>  <NScode>
NS-018434739-0000

>  <a_acc>
5

>  <a_don>
0

>  <chiral>
0

>  <opr_nrot>
6

>  <Weight>
439.492

>  <druglike>
1

>  <lip_druglike>
1

>  <lip_violation>
0

>  <logS>
-4.3189702

$$$$
