NS-042182589-0000
  MOE2022           3D

 15 15  0  0  0  0  0  0  0  0999 V2000
    2.0110    4.6940    0.3370 C   0  0  0  0  0  0  0  0  0  0  0  0
    2.0390    3.2400    0.3480 O   0  0  0  0  0  0  0  0  0  0  0  0
    0.9590    2.4950   -0.0010 C   0  0  0  0  0  0  0  0  0  0  0  0
   -0.0620    3.0950   -0.3190 O   0  0  0  0  0  0  0  0  0  0  0  0
    1.0980    1.0500    0.0390 C   0  0  0  0  0  0  0  0  0  0  0  0
    2.2280    0.3600    0.4780 C   0  0  0  0  0  0  0  0  0  0  0  0
    2.0530   -0.9260    0.4180 N   0  0  0  0  0  0  0  0  0  0  0  0
    0.7970   -1.0890   -0.0670 N   0  0  0  0  0  0  0  0  0  0  0  0
    0.2440   -2.4130   -0.2680 C   0  0  0  0  0  0  0  0  0  0  0  0
    0.1900    0.0910   -0.3180 C   0  0  0  0  0  0  0  0  0  0  0  0
   -1.2200    0.2310   -0.8600 C   0  0  0  0  0  0  0  0  0  0  0  0
   -2.2370    0.4820    0.2600 C   0  0  0  0  0  0  0  0  0  0  0  0
   -3.6400    0.6760   -0.2540 C   0  0  0  0  0  0  0  0  0  0  0  0
   -4.3430   -0.2760   -0.4250 O   0  0  0  0  0  0  0  0  0  0  0  0
   -4.1260    2.0490   -0.6360 C   0  0  0  0  0  0  0  0  0  0  0  0
  1  2  1  0  0  0  0
  2  3  1  0  0  0  0
  3  4  2  0  0  0  0
  3  5  1  0  0  0  0
  5  6  1  0  0  0  0
  5 10  2  0  0  0  0
  6  7  2  0  0  0  0
  7  8  1  0  0  0  0
  8  9  1  0  0  0  0
  8 10  1  0  0  0  0
 10 11  1  0  0  0  0
 11 12  1  0  0  0  0
 12 13  1  0  0  0  0
 13 14  2  0  0  0  0
 13 15  1  0  0  0  0
M  END
>  <NScode>
NS-042182589-0000

>  <a_acc>
3

>  <a_don>
0

>  <chiral>
0

>  <opr_nrot>
4

>  <Weight>
210.233

>  <druglike>
1

>  <lip_druglike>
1

>  <lip_violation>
0

>  <logS>
-0.50524002

$$$$
