NS-015062571-0000
  MOE2022           3D

 30 32  0  0  0  0  0  0  0  0999 V2000
   -3.4190    5.5290    0.0530 N   0  0  0  0  0  0  0  0  0  0  0  0
   -3.7890    4.2860   -0.0070 C   0  0  0  0  0  0  0  0  0  0  0  0
   -0.9840    0.2570   -0.1070 S   0  0  0  0  0  0  0  0  0  0  0  0
   -4.2240    6.2960   -0.7620 C   0  0  0  0  0  0  0  0  0  0  0  0
   -4.0390    7.7420   -0.8780 C   0  0  0  0  0  0  0  0  0  0  0  0
   -3.0910    3.3420    0.7440 N   0  0  0  0  0  0  0  0  0  0  0  0
   -5.1120    3.9180   -1.0540 S   0  0  0  0  0  0  0  0  0  0  0  0
   -5.1780    5.5840   -1.4360 C   0  0  0  0  0  0  0  0  0  0  0  0
   -3.5310    2.1260    1.1670 C   0  0  0  0  0  0  0  0  0  0  0  0
   -0.7370   -1.3940   -0.7780 C   0  0  0  0  0  0  0  0  0  0  0  0
   -2.5790    1.2820    1.9780 C   0  0  0  0  0  0  0  0  0  0  0  0
   -2.1350    0.0110    1.2320 C   0  0  0  0  0  0  0  0  0  0  0  0
    0.2360    0.7320    0.4510 O   0  0  0  0  0  0  0  0  0  0  0  0
   -1.6020    1.0790   -1.0880 O   0  0  0  0  0  0  0  0  0  0  0  0
   -5.1210    8.6450   -0.9560 C   0  0  0  0  0  0  0  0  0  0  0  0
   -2.7470    8.2810   -0.9200 C   0  0  0  0  0  0  0  0  0  0  0  0
   -4.6460    1.7310    0.9150 O   0  0  0  0  0  0  0  0  0  0  0  0
    0.3030   -2.2060   -0.3120 C   0  0  0  0  0  0  0  0  0  0  0  0
   -1.5710   -1.8790   -1.7920 C   0  0  0  0  0  0  0  0  0  0  0  0
   -4.9260   10.0150   -1.1100 C   0  0  0  0  0  0  0  0  0  0  0  0
   -2.5520    9.6510   -1.0620 C   0  0  0  0  0  0  0  0  0  0  0  0
   -0.3530   -3.9610   -1.8310 C   0  0  0  0  0  0  0  0  0  0  0  0
   -3.6340   10.5270   -1.1640 C   0  0  0  0  0  0  0  0  0  0  0  0
   -1.3840   -3.1560   -2.3150 C   0  0  0  0  0  0  0  0  0  0  0  0
    0.4930   -3.4830   -0.8310 C   0  0  0  0  0  0  0  0  0  0  0  0
   -0.1220   -5.5520   -2.4760 Cl  0  0  0  0  0  0  0  0  0  0  0  0
   -6.4250    8.2130   -0.8670 O   0  0  0  0  0  0  0  0  0  0  0  0
   -1.2470   10.0990   -1.1010 O   0  0  0  0  0  0  0  0  0  0  0  0
   -6.9270    7.8160    0.4320 C   0  0  0  0  0  0  0  0  0  0  0  0
   -0.8480   11.4820   -1.2360 C   0  0  0  0  0  0  0  0  0  0  0  0
  1  2  2  0  0  0  0
  1  4  1  0  0  0  0
  2  6  1  0  0  0  0
  2  7  1  0  0  0  0
  3 10  1  0  0  0  0
  3 12  1  0  0  0  0
  3 13  2  0  0  0  0
  3 14  2  0  0  0  0
  4  5  1  0  0  0  0
  4  8  2  0  0  0  0
  5 15  2  0  0  0  0
  5 16  1  0  0  0  0
  6  9  1  0  0  0  0
  7  8  1  0  0  0  0
  9 11  1  0  0  0  0
  9 17  2  0  0  0  0
 10 18  1  0  0  0  0
 10 19  2  0  0  0  0
 11 12  1  0  0  0  0
 15 20  1  0  0  0  0
 15 27  1  0  0  0  0
 16 21  2  0  0  0  0
 18 25  2  0  0  0  0
 19 24  1  0  0  0  0
 20 23  2  0  0  0  0
 21 23  1  0  0  0  0
 21 28  1  0  0  0  0
 22 24  2  0  0  0  0
 22 25  1  0  0  0  0
 22 26  1  0  0  0  0
 27 29  1  0  0  0  0
 28 30  1  0  0  0  0
M  END
>  <NScode>
NS-015062571-0000

>  <a_acc>
6

>  <a_don>
1

>  <chiral>
0

>  <opr_nrot>
8

>  <Weight>
466.966

>  <druglike>
1

>  <lip_druglike>
1

>  <lip_violation>
0

>  <logS>
-6.1055198

$$$$
