NS-000642067-0001
  MOE2022           3D

 15 15  0  0  1  0  0  0  0  0999 V2000
   -0.2380   -3.5610    0.5990 N   0  0  0  0  0  0  0  0  0  0  0  0
   -0.1140   -2.4320    0.6740 C   0  0  0  0  0  0  0  0  0  0  0  0
   -1.2310   -0.2000    0.4810 C   0  0  0  0  0  0  0  0  0  0  0  0
   -1.9430    0.4450    1.4960 C   0  0  0  0  0  0  0  0  0  0  0  0
    0.0520   -0.9520    0.7950 C   0  0  3  0  0  0  0  0  0  0  0  0
   -3.1180    1.1340    1.2060 C   0  0  0  0  0  0  0  0  0  0  0  0
    1.1460   -0.3930   -0.0340 N   0  0  0  0  0  0  0  0  0  0  0  0
   -4.0700    2.0030    2.5910 Br  0  0  0  0  0  0  0  0  0  0  0  0
   -1.7150   -0.1450   -0.8290 C   0  0  0  0  0  0  0  0  0  0  0  0
   -2.8890    0.5430   -1.1190 C   0  0  0  0  0  0  0  0  0  0  0  0
    4.8430   -0.3470    0.3230 O   0  0  0  0  0  0  0  0  0  0  0  0
   -3.5910    1.1830   -0.1030 C   0  0  0  0  0  0  0  0  0  0  0  0
    2.4850   -0.6930    0.5390 C   0  0  0  0  0  0  0  0  0  0  0  0
    3.6070   -0.1590   -0.3500 C   0  0  0  0  0  0  0  0  0  0  0  0
    5.9570    0.0800   -0.4430 C   0  0  0  0  0  0  0  0  0  0  0  0
  1  2  3  0  0  0  0
  2  5  1  0  0  0  0
  3  4  2  0  0  0  0
  3  5  1  0  0  0  0
  3  9  1  0  0  0  0
  4  6  1  0  0  0  0
  5  7  1  0  0  0  0
  6  8  1  0  0  0  0
  6 12  2  0  0  0  0
  7 13  1  0  0  0  0
  9 10  2  0  0  0  0
 10 12  1  0  0  0  0
 11 14  1  0  0  0  0
 11 15  1  0  0  0  0
 13 14  1  0  0  0  0
M  END
>  <NScode>
NS-000642067-0001

>  <a_acc>
3

>  <a_don>
1

>  <chiral>
1

>  <opr_nrot>
6

>  <Weight>
269.142

>  <druglike>
1

>  <lip_druglike>
1

>  <lip_violation>
0

>  <logS>
-2.73578

$$$$
