NS-015349234-0000
  MOE2022           3D

 23 24  0  0  0  0  0  0  0  0999 V2000
    9.0330    5.8690    2.2330 N   0  0  0  0  0  0  0  0  0  0  0  0
    2.1120   -0.9510    0.9360 N   0  0  0  0  0  0  0  0  0  0  0  0
    4.5190    2.8430    0.6900 C   0  0  0  0  0  0  0  0  0  0  0  0
    8.1380    5.3170    1.8000 C   0  0  0  0  0  0  0  0  0  0  0  0
    5.2140    2.9090    1.9120 C   0  0  0  0  0  0  0  0  0  0  0  0
    3.4080    2.0050    0.5690 C   0  0  0  0  0  0  0  0  0  0  0  0
    1.4500   -1.2910   -0.0670 N   0  0  0  0  0  0  0  0  0  0  0  0
    4.7940    2.1360    2.9890 C   0  0  0  0  0  0  0  0  0  0  0  0
    1.7730    0.3380    1.5260 C   0  0  0  0  0  0  0  0  0  0  0  0
    2.9840    1.2410    1.6570 C   0  0  0  0  0  0  0  0  0  0  0  0
    1.7200   -2.5440   -0.7020 C   0  0  0  0  0  0  0  0  0  0  0  0
    2.1500   -4.9770   -2.0140 C   0  0  0  0  0  0  0  0  0  0  0  0
    3.6850    1.3050    2.8620 C   0  0  0  0  0  0  0  0  0  0  0  0
    4.9320    3.6080   -0.3960 O   0  0  0  0  0  0  0  0  0  0  0  0
    2.4380   -6.6240   -2.9010 Br  0  0  0  0  0  0  0  0  0  0  0  0
    6.3270    3.7070    2.1490 O   0  0  0  0  0  0  0  0  0  0  0  0
    0.9380   -2.9000   -1.8040 C   0  0  0  0  0  0  0  0  0  0  0  0
    2.7240   -3.4170   -0.2620 C   0  0  0  0  0  0  0  0  0  0  0  0
    1.1510   -4.1110   -2.4560 C   0  0  0  0  0  0  0  0  0  0  0  0
    2.9350   -4.6280   -0.9170 C   0  0  0  0  0  0  0  0  0  0  0  0
    6.9780    4.6100    1.2160 C   0  0  0  0  0  0  0  0  0  0  0  0
    4.3300    3.6140   -1.7070 C   0  0  0  0  0  0  0  0  0  0  0  0
    5.0680    4.5640   -2.6460 C   0  0  0  0  0  0  0  0  0  0  0  0
  1  4  3  0  0  0  0
  2  7  2  0  0  0  0
  2  9  1  0  0  0  0
  3  5  2  0  0  0  0
  3  6  1  0  0  0  0
  3 14  1  0  0  0  0
  4 21  1  0  0  0  0
  5  8  1  0  0  0  0
  5 16  1  0  0  0  0
  6 10  2  0  0  0  0
  7 11  1  0  0  0  0
  8 13  2  0  0  0  0
  9 10  1  0  0  0  0
 10 13  1  0  0  0  0
 11 17  2  0  0  0  0
 11 18  1  0  0  0  0
 12 15  1  0  0  0  0
 12 19  2  0  0  0  0
 12 20  1  0  0  0  0
 14 22  1  0  0  0  0
 16 21  1  0  0  0  0
 17 19  1  0  0  0  0
 18 20  2  0  0  0  0
 22 23  1  0  0  0  0
M  END
>  <NScode>
NS-015349234-0000

>  <a_acc>
4

>  <a_don>
1

>  <chiral>
0

>  <opr_nrot>
8

>  <Weight>
374.23801

>  <druglike>
1

>  <lip_druglike>
1

>  <lip_violation>
0

>  <logS>
-4.9026399

$$$$
