NS-017508248-0000
  MOE2022           3D

 22 24  0  0  0  0  0  0  0  0999 V2000
   -2.5170    2.6480    0.1560 N   0  0  0  0  0  0  0  0  0  0  0  0
   -2.1360    3.8980    0.6020 N   0  0  0  0  0  0  0  0  0  0  0  0
   -3.8260    2.6730   -0.2750 C   0  0  0  0  0  0  0  0  0  0  0  0
   -4.2440    3.9420   -0.0770 C   0  0  0  0  0  0  0  0  0  0  0  0
    2.1870   -1.8860   -0.5460 C   0  0  0  0  0  0  0  0  0  0  0  0
   -1.5870    1.5150    0.1480 C   0  0  0  0  0  0  0  0  0  0  0  0
   -2.0620    0.2620    0.3400 N   0  0  0  0  0  0  0  0  0  0  0  0
   -3.1800    4.6560    0.4600 C   0  0  0  0  0  0  0  0  0  0  0  0
    3.0260   -3.0440   -0.2420 C   0  0  0  0  0  0  0  0  0  0  0  0
    1.0400   -1.6880    0.1990 N   0  0  0  0  0  0  0  0  0  0  0  0
    2.4390   -1.1060   -1.4520 O   0  0  0  0  0  0  0  0  0  0  0  0
    4.6580   -4.6120   -1.0240 N   0  0  0  0  0  0  0  0  0  0  0  0
   -0.2260    1.7790   -0.0510 C   0  0  0  0  0  0  0  0  0  0  0  0
    0.1760   -0.5580    0.1450 C   0  0  0  0  0  0  0  0  0  0  0  0
   -1.1980   -0.7530    0.3370 C   0  0  0  0  0  0  0  0  0  0  0  0
    3.8790   -3.5500   -1.2310 C   0  0  0  0  0  0  0  0  0  0  0  0
    0.6770    0.7280   -0.0530 C   0  0  0  0  0  0  0  0  0  0  0  0
   -4.5820    1.4890   -0.8450 C   0  0  0  0  0  0  0  0  0  0  0  0
    3.0180   -3.6720    1.0100 C   0  0  0  0  0  0  0  0  0  0  0  0
   -3.1880    6.1130    0.8370 C   0  0  0  0  0  0  0  0  0  0  0  0
    4.6480   -5.2220    0.1600 C   0  0  0  0  0  0  0  0  0  0  0  0
    3.8400   -4.7740    1.2010 C   0  0  0  0  0  0  0  0  0  0  0  0
  1  2  1  0  0  0  0
  1  3  1  0  0  0  0
  1  6  1  0  0  0  0
  2  8  2  0  0  0  0
  3  4  2  0  0  0  0
  3 18  1  0  0  0  0
  4  8  1  0  0  0  0
  5  9  1  0  0  0  0
  5 10  1  0  0  0  0
  5 11  2  0  0  0  0
  6  7  2  0  0  0  0
  6 13  1  0  0  0  0
  7 15  1  0  0  0  0
  8 20  1  0  0  0  0
  9 16  2  0  0  0  0
  9 19  1  0  0  0  0
 10 14  1  0  0  0  0
 12 16  1  0  0  0  0
 12 21  2  0  0  0  0
 13 17  2  0  0  0  0
 14 15  2  0  0  0  0
 14 17  1  0  0  0  0
 19 22  2  0  0  0  0
 21 22  1  0  0  0  0
M  END
>  <NScode>
NS-017508248-0000

>  <a_acc>
4

>  <a_don>
1

>  <chiral>
0

>  <opr_nrot>
3

>  <Weight>
293.32999

>  <druglike>
1

>  <lip_druglike>
1

>  <lip_violation>
0

>  <logS>
-1.93054

$$$$
