NS-018378968-0000
  MOE2022           3D

 24 26  0  0  0  0  0  0  0  0999 V2000
    1.6250   -0.7480   -0.5380 N   0  0  0  0  0  0  0  0  0  0  0  0
    2.5510    0.1520   -0.7140 C   0  0  0  0  0  0  0  0  0  0  0  0
   -5.1930   -1.5670    0.1710 C   0  0  0  0  0  0  0  0  0  0  0  0
    2.0690    1.2630   -1.3240 O   0  0  0  0  0  0  0  0  0  0  0  0
   -3.9280   -0.8870   -0.0100 C   0  0  0  0  0  0  0  0  0  0  0  0
   -6.3260   -0.8130    0.6460 C   0  0  0  0  0  0  0  0  0  0  0  0
    0.5050   -0.1930   -1.0580 C   0  0  0  0  0  0  0  0  0  0  0  0
    0.7890    1.0320   -1.5300 C   0  0  0  0  0  0  0  0  0  0  0  0
    3.9600    0.0770   -0.3360 C   0  0  0  0  0  0  0  0  0  0  0  0
   -7.5220   -1.4740    0.7800 N   0  0  0  0  0  0  0  0  0  0  0  0
   -3.7980    0.2150   -0.5260 O   0  0  0  0  0  0  0  0  0  0  0  0
   -2.7810   -1.5310    0.3830 N   0  0  0  0  0  0  0  0  0  0  0  0
    4.4840   -1.0930    0.2330 C   0  0  0  0  0  0  0  0  0  0  0  0
    4.8240    1.1660   -0.5270 C   0  0  0  0  0  0  0  0  0  0  0  0
   -0.8430   -0.8700   -1.0610 C   0  0  0  0  0  0  0  0  0  0  0  0
   -6.3650    0.3660    0.9950 O   0  0  0  0  0  0  0  0  0  0  0  0
   -1.4590   -0.8930    0.3390 C   0  0  0  0  0  0  0  0  0  0  0  0
    6.1620    1.0860   -0.1600 C   0  0  0  0  0  0  0  0  0  0  0  0
    5.8240   -1.1700    0.5980 C   0  0  0  0  0  0  0  0  0  0  0  0
    6.6690   -0.0800    0.4090 C   0  0  0  0  0  0  0  0  0  0  0  0
   -5.3430   -2.9110   -0.0970 C   0  0  0  0  0  0  0  0  0  0  0  0
   -7.6790   -2.8140    0.5110 C   0  0  0  0  0  0  0  0  0  0  0  0
    8.1270   -0.1660    0.7990 C   0  0  0  0  0  0  0  0  0  0  0  0
   -6.6030   -3.5400    0.0780 C   0  0  0  0  0  0  0  0  0  0  0  0
  1  2  2  0  0  0  0
  1  7  1  0  0  0  0
  2  4  1  0  0  0  0
  2  9  1  0  0  0  0
  3  5  1  0  0  0  0
  3  6  1  0  0  0  0
  3 21  2  0  0  0  0
  4  8  1  0  0  0  0
  5 11  2  0  0  0  0
  5 12  1  0  0  0  0
  6 10  1  0  0  0  0
  6 16  2  0  0  0  0
  7  8  2  0  0  0  0
  7 15  1  0  0  0  0
  9 13  1  0  0  0  0
  9 14  2  0  0  0  0
 10 22  1  0  0  0  0
 12 17  1  0  0  0  0
 13 19  2  0  0  0  0
 14 18  1  0  0  0  0
 15 17  1  0  0  0  0
 18 20  2  0  0  0  0
 19 20  1  0  0  0  0
 20 23  1  0  0  0  0
 21 24  1  0  0  0  0
 22 24  2  0  0  0  0
M  END
>  <NScode>
NS-018378968-0000

>  <a_acc>
3

>  <a_don>
2

>  <chiral>
0

>  <opr_nrot>
5

>  <Weight>
323.35199

>  <druglike>
1

>  <lip_druglike>
1

>  <lip_violation>
0

>  <logS>
-4.1785798

$$$$
