NS-022362400-0000
  MOE2022           3D

 19 20  0  0  0  0  0  0  0  0999 V2000
    3.1040    5.4390    0.1540 C   0  0  0  0  0  0  0  0  0  0  0  0
    1.6820    4.9440   -0.1340 C   0  0  0  0  0  0  0  0  0  0  0  0
    1.6050    3.4620   -0.4480 C   0  0  0  0  0  0  0  0  0  0  0  0
    2.6120    2.7700   -1.0460 N   0  0  0  0  0  0  0  0  0  0  0  0
    2.3040    1.4570   -1.2710 N   0  0  0  0  0  0  0  0  0  0  0  0
    1.1060    1.3490   -0.7790 C   0  0  0  0  0  0  0  0  0  0  0  0
    0.5010    0.0870   -0.8780 N   0  0  0  0  0  0  0  0  0  0  0  0
   -0.1060   -0.6010    0.1360 C   0  0  0  0  0  0  0  0  0  0  0  0
   -0.1710   -0.0910    1.2470 O   0  0  0  0  0  0  0  0  0  0  0  0
   -0.6280   -1.9320   -0.1820 C   0  0  0  0  0  0  0  0  0  0  0  0
    0.2180   -2.8760   -0.7810 C   0  0  0  0  0  0  0  0  0  0  0  0
   -0.2800   -4.1300   -1.0940 C   0  0  0  0  0  0  0  0  0  0  0  0
    0.5430   -5.0310   -1.6750 F   0  0  0  0  0  0  0  0  0  0  0  0
   -1.5920   -4.4940   -0.8320 C   0  0  0  0  0  0  0  0  0  0  0  0
   -2.4360   -3.5640   -0.2310 C   0  0  0  0  0  0  0  0  0  0  0  0
   -1.9670   -2.2890    0.0940 C   0  0  0  0  0  0  0  0  0  0  0  0
   -2.9190   -1.3040    0.7500 C   0  0  0  0  0  0  0  0  0  0  0  0
    0.6100    2.5580   -0.2780 C   0  0  0  0  0  0  0  0  0  0  0  0
   -1.1040    2.9440    0.4070 Br  0  0  0  0  0  0  0  0  0  0  0  0
  1  2  1  0  0  0  0
  2  3  1  0  0  0  0
  3  4  1  0  0  0  0
  3 18  2  0  0  0  0
  4  5  1  0  0  0  0
  5  6  2  0  0  0  0
  6  7  1  0  0  0  0
  6 18  1  0  0  0  0
  7  8  1  0  0  0  0
  8  9  2  0  0  0  0
  8 10  1  0  0  0  0
 10 11  1  0  0  0  0
 10 16  2  0  0  0  0
 11 12  2  0  0  0  0
 12 13  1  0  0  0  0
 12 14  1  0  0  0  0
 14 15  2  0  0  0  0
 15 16  1  0  0  0  0
 16 17  1  0  0  0  0
 18 19  1  0  0  0  0
M  END
>  <NScode>
NS-022362400-0000

>  <a_acc>
3

>  <a_don>
3

>  <chiral>
0

>  <opr_nrot>
3

>  <Weight>
326.16901

>  <druglike>
1

>  <lip_druglike>
1

>  <lip_violation>
0

>  <logS>
-4.4766202

$$$$
