NS-014887502-0000
  MOE2022           3D

 27 30  0  0  0  0  0  0  0  0999 V2000
    2.3580   -4.6110   -1.1700 S   0  0  0  0  0  0  0  0  0  0  0  0
    1.1320    1.5170    0.5440 O   0  0  0  0  0  0  0  0  0  0  0  0
    1.0680    0.4060   -0.1710 C   0  0  0  0  0  0  0  0  0  0  0  0
    0.2970    0.5640   -1.1980 N   0  0  0  0  0  0  0  0  0  0  0  0
    0.3700    2.3630   -0.0920 C   0  0  0  0  0  0  0  0  0  0  0  0
   -0.1640    1.8450   -1.1520 N   0  0  0  0  0  0  0  0  0  0  0  0
    1.3270   -5.6150   -0.3530 N   0  0  0  0  0  0  0  0  0  0  0  0
    2.4360   -3.1110   -0.1660 C   0  0  0  0  0  0  0  0  0  0  0  0
   -1.3690    7.0650   -1.4220 N   0  0  0  0  0  0  0  0  0  0  0  0
   -1.2940    6.1310   -0.4290 C   0  0  0  0  0  0  0  0  0  0  0  0
    1.8030   -0.7860    0.2320 C   0  0  0  0  0  0  0  0  0  0  0  0
    1.7490   -1.9560   -0.5430 C   0  0  0  0  0  0  0  0  0  0  0  0
    1.7700   -4.2940   -2.4260 O   0  0  0  0  0  0  0  0  0  0  0  0
    3.6510   -5.2020   -1.2020 O   0  0  0  0  0  0  0  0  0  0  0  0
   -2.0130    8.2550    0.7570 S   0  0  0  0  0  0  0  0  0  0  0  0
   -1.7310    8.2200   -0.9410 C   0  0  0  0  0  0  0  0  0  0  0  0
    0.1850    3.9670    0.5390 S   0  0  0  0  0  0  0  0  0  0  0  0
   -1.6110    6.5950    0.8100 C   0  0  0  0  0  0  0  0  0  0  0  0
   -0.9020    4.7010   -0.7320 C   0  0  0  0  0  0  0  0  0  0  0  0
    1.3510   -7.0350   -0.7300 C   0  0  0  0  0  0  0  0  0  0  0  0
   -0.0570   -5.1580   -0.1550 C   0  0  0  0  0  0  0  0  0  0  0  0
    3.2070   -3.0890    0.9990 C   0  0  0  0  0  0  0  0  0  0  0  0
    2.5800   -0.7990    1.4000 C   0  0  0  0  0  0  0  0  0  0  0  0
    3.2760   -1.9390    1.7780 C   0  0  0  0  0  0  0  0  0  0  0  0
    0.8180   -7.9620    0.3850 C   0  0  0  0  0  0  0  0  0  0  0  0
   -0.7520   -5.8540    1.0340 C   0  0  0  0  0  0  0  0  0  0  0  0
   -0.3620   -7.3490    1.1880 C   0  0  0  0  0  0  0  0  0  0  0  0
  1  7  1  0  0  0  0
  1  8  1  0  0  0  0
  1 13  2  0  0  0  0
  1 14  2  0  0  0  0
  2  3  1  0  0  0  0
  2  5  1  0  0  0  0
  3  4  2  0  0  0  0
  3 11  1  0  0  0  0
  4  6  1  0  0  0  0
  5  6  2  0  0  0  0
  5 17  1  0  0  0  0
  7 20  1  0  0  0  0
  7 21  1  0  0  0  0
  8 12  2  0  0  0  0
  8 22  1  0  0  0  0
  9 10  1  0  0  0  0
  9 16  2  0  0  0  0
 10 18  2  0  0  0  0
 10 19  1  0  0  0  0
 11 12  1  0  0  0  0
 11 23  2  0  0  0  0
 15 16  1  0  0  0  0
 15 18  1  0  0  0  0
 17 19  1  0  0  0  0
 20 25  1  0  0  0  0
 21 26  1  0  0  0  0
 22 24  2  0  0  0  0
 23 24  1  0  0  0  0
 25 27  1  0  0  0  0
 26 27  1  0  0  0  0
M  END
>  <NScode>
NS-014887502-0000

>  <a_acc>
5

>  <a_don>
0

>  <chiral>
0

>  <opr_nrot>
7

>  <Weight>
422.55399

>  <druglike>
1

>  <lip_druglike>
1

>  <lip_violation>
0

>  <logS>
-6.4332099

$$$$
