NS-012598989-0000
  MOE2022           3D

 27 30  0  0  0  0  0  0  0  0999 V2000
   -2.0150   -2.4500   -0.1030 C   0  0  0  0  0  0  0  0  0  0  0  0
   -0.5970   -2.2060    0.1150 C   0  0  0  0  0  0  0  0  0  0  0  0
   -3.9290   -3.5280   -0.4910 N   0  0  0  0  0  0  0  0  0  0  0  0
    1.5180   -1.5160    0.1950 C   0  0  0  0  0  0  0  0  0  0  0  0
   -4.1470   -2.2030   -0.3340 N   0  0  0  0  0  0  0  0  0  0  0  0
   -2.6450   -3.6750   -0.3600 C   0  0  0  0  0  0  0  0  0  0  0  0
   -3.0040   -1.5180   -0.0930 C   0  0  0  0  0  0  0  0  0  0  0  0
    0.2620   -1.2700   -0.3610 C   0  0  0  0  0  0  0  0  0  0  0  0
    1.4570   -2.5740    1.0040 N   0  0  0  0  0  0  0  0  0  0  0  0
    0.1640   -2.9710    0.9410 N   0  0  0  0  0  0  0  0  0  0  0  0
    2.7300   -0.7350   -0.0670 C   0  0  0  0  0  0  0  0  0  0  0  0
    3.8620   -1.1360    0.6080 N   0  0  0  0  0  0  0  0  0  0  0  0
    7.5330   -1.0500    0.7170 C   0  0  0  0  0  0  0  0  0  0  0  0
    6.2240   -1.5120    0.7700 C   0  0  0  0  0  0  0  0  0  0  0  0
    7.7980    0.3010    0.4490 C   0  0  0  0  0  0  0  0  0  0  0  0
    5.1780   -0.6170    0.5400 C   0  0  0  0  0  0  0  0  0  0  0  0
    2.7890    0.2160   -0.8440 O   0  0  0  0  0  0  0  0  0  0  0  0
    8.5450   -1.9560    0.9560 O   0  0  0  0  0  0  0  0  0  0  0  0
    9.0890    0.7970    0.4080 O   0  0  0  0  0  0  0  0  0  0  0  0
    6.7510    1.1930    0.2380 C   0  0  0  0  0  0  0  0  0  0  0  0
    5.4350    0.7370    0.2820 C   0  0  0  0  0  0  0  0  0  0  0  0
   -5.4830   -1.6540   -0.4220 C   0  0  0  0  0  0  0  0  0  0  0  0
   -1.9900   -5.0260   -0.4930 C   0  0  0  0  0  0  0  0  0  0  0  0
   -2.9540   -0.0190    0.1290 C   0  0  0  0  0  0  0  0  0  0  0  0
   10.2380   -1.1360   -0.7090 C   0  0  0  0  0  0  0  0  0  0  0  0
    9.4970   -2.3320   -0.0740 C   0  0  0  0  0  0  0  0  0  0  0  0
   10.0310    0.3910   -0.6190 C   0  0  0  0  0  0  0  0  0  0  0  0
  1  2  1  0  0  0  0
  1  6  1  0  0  0  0
  1  7  2  0  0  0  0
  2  8  2  0  0  0  0
  2 10  1  0  0  0  0
  3  5  1  0  0  0  0
  3  6  2  0  0  0  0
  4  8  1  0  0  0  0
  4  9  2  0  0  0  0
  4 11  1  0  0  0  0
  5  7  1  0  0  0  0
  5 22  1  0  0  0  0
  6 23  1  0  0  0  0
  7 24  1  0  0  0  0
  9 10  1  0  0  0  0
 11 12  1  0  0  0  0
 11 17  2  0  0  0  0
 12 16  1  0  0  0  0
 13 14  2  0  0  0  0
 13 15  1  0  0  0  0
 13 18  1  0  0  0  0
 14 16  1  0  0  0  0
 15 19  1  0  0  0  0
 15 20  2  0  0  0  0
 16 21  2  0  0  0  0
 18 26  1  0  0  0  0
 19 27  1  0  0  0  0
 20 21  1  0  0  0  0
 25 26  1  0  0  0  0
 25 27  1  0  0  0  0
M  END
>  <NScode>
NS-012598989-0000

>  <a_acc>
6

>  <a_don>
3

>  <chiral>
0

>  <opr_nrot>
5

>  <Weight>
367.409

>  <druglike>
1

>  <lip_druglike>
1

>  <lip_violation>
0

>  <logS>
-3.74721

$$$$
