NS-014135601-0000
  MOE2022           3D

 34 37  0  0  1  0  0  0  0  0999 V2000
    0.5990    0.3680    0.3790 C   0  0  0  0  0  0  0  0  0  0  0  0
    1.8670    0.8210    0.2190 N   0  0  0  0  0  0  0  0  0  0  0  0
    5.3670    2.4160   -0.6600 C   0  0  0  0  0  0  0  0  0  0  0  0
    4.6340    1.7820    0.3310 N   0  0  0  0  0  0  0  0  0  0  0  0
    0.2040   -1.1040    0.0470 C   0  0  3  0  0  0  0  0  0  0  0  0
   -1.1310   -1.1470   -0.5570 N   0  0  0  0  0  0  0  0  0  0  0  0
   -1.4300   -1.7140   -1.7220 C   0  0  0  0  0  0  0  0  0  0  0  0
   -3.8750   -2.1230   -1.1300 C   0  0  0  0  0  0  0  0  0  0  0  0
   -2.8740   -1.6410   -2.1720 C   0  0  0  0  0  0  0  0  0  0  0  0
   -4.3630   -1.2670   -0.0910 C   0  0  0  0  0  0  0  0  0  0  0  0
   -0.2720    1.1170    0.8280 O   0  0  0  0  0  0  0  0  0  0  0  0
    2.1760    2.2560    0.4660 C   0  0  0  0  0  0  0  0  0  0  0  0
    2.9790    0.0620   -0.4230 C   0  0  0  0  0  0  0  0  0  0  0  0
    4.3480    0.3380    0.2280 C   0  0  0  0  0  0  0  0  0  0  0  0
    3.5730    2.4920    1.0750 C   0  0  0  0  0  0  0  0  0  0  0  0
    5.7080    1.7440   -1.6280 O   0  0  0  0  0  0  0  0  0  0  0  0
    5.6930    3.8410   -0.5510 C   0  0  0  0  0  0  0  0  0  0  0  0
   -0.5680   -2.2630   -2.3990 O   0  0  0  0  0  0  0  0  0  0  0  0
    0.2110   -2.0100    1.3100 C   0  0  0  0  0  0  0  0  0  0  0  0
   -5.2480   -1.8080    0.8790 C   0  0  0  0  0  0  0  0  0  0  0  0
   -4.2810   -3.4390   -1.1830 C   0  0  0  0  0  0  0  0  0  0  0  0
   -5.1780   -3.9600   -0.2300 C   0  0  0  0  0  0  0  0  0  0  0  0
   -3.9960    0.1060    0.0290 C   0  0  0  0  0  0  0  0  0  0  0  0
   -5.6510   -3.1620    0.7800 C   0  0  0  0  0  0  0  0  0  0  0  0
    5.5330    4.6840   -1.6580 C   0  0  0  0  0  0  0  0  0  0  0  0
    6.1790    4.3850    0.6480 C   0  0  0  0  0  0  0  0  0  0  0  0
   -5.7130   -0.9880    1.9390 C   0  0  0  0  0  0  0  0  0  0  0  0
    1.5760   -2.0490    2.0220 C   0  0  0  0  0  0  0  0  0  0  0  0
   -0.1800   -3.4680    0.9940 C   0  0  0  0  0  0  0  0  0  0  0  0
   -4.4600    0.8760    1.0680 C   0  0  0  0  0  0  0  0  0  0  0  0
    6.4730    5.7410    0.7410 C   0  0  0  0  0  0  0  0  0  0  0  0
    5.8280    6.0400   -1.5640 C   0  0  0  0  0  0  0  0  0  0  0  0
   -5.3240    0.3250    2.0330 C   0  0  0  0  0  0  0  0  0  0  0  0
    6.2940    6.5690   -0.3640 C   0  0  0  0  0  0  0  0  0  0  0  0
  1  2  1  0  0  0  0
  1  5  1  0  0  0  0
  1 11  2  0  0  0  0
  2 12  1  0  0  0  0
  2 13  1  0  0  0  0
  3  4  1  0  0  0  0
  3 16  2  0  0  0  0
  3 17  1  0  0  0  0
  4 14  1  0  0  0  0
  4 15  1  0  0  0  0
  5  6  1  0  0  0  0
  5 19  1  0  0  0  0
  6  7  1  0  0  0  0
  7  9  1  0  0  0  0
  7 18  2  0  0  0  0
  8  9  1  0  0  0  0
  8 10  2  0  0  0  0
  8 21  1  0  0  0  0
 10 20  1  0  0  0  0
 10 23  1  0  0  0  0
 12 15  1  0  0  0  0
 13 14  1  0  0  0  0
 17 25  1  0  0  0  0
 17 26  2  0  0  0  0
 19 28  1  0  0  0  0
 19 29  1  0  0  0  0
 20 24  2  0  0  0  0
 20 27  1  0  0  0  0
 21 22  2  0  0  0  0
 22 24  1  0  0  0  0
 23 30  2  0  0  0  0
 25 32  2  0  0  0  0
 26 31  1  0  0  0  0
 27 33  2  0  0  0  0
 30 33  1  0  0  0  0
 31 34  2  0  0  0  0
 32 34  1  0  0  0  0
M  END
>  <NScode>
NS-014135601-0000

>  <a_acc>
3

>  <a_don>
1

>  <chiral>
1

>  <opr_nrot>
8

>  <Weight>
457.57401

>  <druglike>
0

>  <lip_druglike>
1

>  <lip_violation>
0

>  <logS>
-6.2510099

$$$$
