NS-044503067-0000
  MOE2022           3D

 18 18  0  0  0  0  0  0  0  0999 V2000
    2.8500   -3.6420   -1.2620 C   0  0  0  0  0  0  0  0  0  0  0  0
    2.3620   -3.7860    0.1850 C   0  0  0  0  0  0  0  0  0  0  0  0
    3.4730   -3.4760    1.1960 C   0  0  0  0  0  0  0  0  0  0  0  0
    1.8940   -5.2270    0.4000 C   0  0  0  0  0  0  0  0  0  0  0  0
    1.2180   -2.9390    0.4160 O   0  0  0  0  0  0  0  0  0  0  0  0
    1.1730   -1.5990    0.3260 C   0  0  0  0  0  0  0  0  0  0  0  0
    2.1350   -0.9030    0.0550 O   0  0  0  0  0  0  0  0  0  0  0  0
   -0.0680   -1.1340    0.5770 N   0  0  0  0  0  0  0  0  0  0  0  0
   -0.5410    0.2370    0.3880 C   0  0  0  0  0  0  0  0  0  0  0  0
   -0.4420    0.8850   -1.0200 C   0  0  0  0  0  0  0  0  0  0  0  0
   -0.0920    2.2560   -0.3460 C   0  0  0  0  0  0  0  0  0  0  0  0
    0.2600    1.4470    0.9490 C   0  0  0  0  0  0  0  0  0  0  0  0
   -1.2530    3.2410   -0.1940 C   0  0  0  0  0  0  0  0  0  0  0  0
   -2.2320    2.7730    0.6400 F   0  0  0  0  0  0  0  0  0  0  0  0
   -1.8940    3.4770   -1.3700 F   0  0  0  0  0  0  0  0  0  0  0  0
    1.0280    3.0690   -0.9190 C   0  0  0  0  0  0  0  0  0  0  0  0
    1.4100    2.8780   -2.0910 O   0  5  0  0  0  0  0  0  0  0  0  0
    1.4560    4.0070   -0.2090 O   0  0  0  0  0  0  0  0  0  0  0  0
  1  2  1  0  0  0  0
  2  3  1  0  0  0  0
  2  4  1  0  0  0  0
  2  5  1  0  0  0  0
  5  6  1  0  0  0  0
  6  7  2  0  0  0  0
  6  8  1  0  0  0  0
  8  9  1  0  0  0  0
  9 10  1  0  0  0  0
  9 12  1  0  0  0  0
 10 11  1  0  0  0  0
 11 12  1  0  0  0  0
 11 13  1  0  0  0  0
 11 16  1  0  0  0  0
 13 14  1  0  0  0  0
 13 15  1  0  0  0  0
 16 17  1  0  0  0  0
 16 18  2  0  0  0  0
M  CHG  1  17  -1
M  END
>  <NScode>
NS-044503067-0000

>  <a_acc>
2

>  <a_don>
3

>  <chiral>
0

>  <opr_nrot>
4

>  <Weight>
265.25598

>  <druglike>
1

>  <lip_druglike>
1

>  <lip_violation>
0

>  <logS>
-1.5289299

$$$$
