NS-042515828-0000F6518-4880
  MOE2022           3D

 28 30  0  0  0  0  0  0  0  0999 V2000
   -0.8090    7.7890    1.0520 S   0  0  0  0  0  0  0  0  0  0  0  0
   -9.2920    5.3620   -0.7350 C   0  0  0  0  0  0  0  0  0  0  0  0
   -9.8320    4.9600    0.4510 N   0  0  0  0  0  0  0  0  0  0  0  0
    2.0160    3.6070   -0.6510 C   0  0  0  0  0  0  0  0  0  0  0  0
  -11.0480    4.3840    0.2980 N   0  0  0  0  0  0  0  0  0  0  0  0
   -0.4250    6.0210    1.0670 C   0  0  0  0  0  0  0  0  0  0  0  0
    0.8960    4.1420    0.2500 C   0  0  0  0  0  0  0  0  0  0  0  0
  -10.2160    5.0040   -1.6650 C   0  0  0  0  0  0  0  0  0  0  0  0
    0.5900    5.5080    0.2540 C   0  0  0  0  0  0  0  0  0  0  0  0
   -1.4760    8.1160    2.2630 O   0  0  0  0  0  0  0  0  0  0  0  0
    0.3780    8.5010    0.7410 O   0  0  0  0  0  0  0  0  0  0  0  0
   -7.9970    6.0070   -0.8700 C   0  0  0  0  0  0  0  0  0  0  0  0
   -1.8560    7.9620   -0.1970 N   0  0  0  0  0  0  0  0  0  0  0  0
  -11.2710    4.4150   -0.9890 C   0  0  0  0  0  0  0  0  0  0  0  0
    2.0150    4.1960   -1.8600 F   0  0  0  0  0  0  0  0  0  0  0  0
    1.9230    2.2840   -0.8760 F   0  0  0  0  0  0  0  0  0  0  0  0
    3.2280    3.8210   -0.1220 F   0  0  0  0  0  0  0  0  0  0  0  0
   -7.7070    7.1960   -0.1920 C   0  0  0  0  0  0  0  0  0  0  0  0
   -7.0120    5.4440   -1.6850 C   0  0  0  0  0  0  0  0  0  0  0  0
   -5.7620    6.0400   -1.8040 C   0  0  0  0  0  0  0  0  0  0  0  0
   -6.4570    7.7920   -0.3080 C   0  0  0  0  0  0  0  0  0  0  0  0
   -5.4760    7.2170   -1.1140 C   0  0  0  0  0  0  0  0  0  0  0  0
   -3.1780    7.3630   -0.1070 C   0  0  0  0  0  0  0  0  0  0  0  0
   -9.2350    5.0900    1.7650 C   0  0  0  0  0  0  0  0  0  0  0  0
   -1.1220    5.1490    1.9060 C   0  0  0  0  0  0  0  0  0  0  0  0
    0.1770    3.2890    1.0940 C   0  0  0  0  0  0  0  0  0  0  0  0
   -0.8240    3.7910    1.9170 C   0  0  0  0  0  0  0  0  0  0  0  0
   -4.1070    7.8540   -1.2160 C   0  0  0  0  0  0  0  0  0  0  0  0
  1  6  1  0  0  0  0
  1 10  2  0  0  0  0
  1 11  2  0  0  0  0
  1 13  1  0  0  0  0
  2  3  1  0  0  0  0
  2  8  2  0  0  0  0
  2 12  1  0  0  0  0
  3  5  1  0  0  0  0
  3 24  1  0  0  0  0
  4  7  1  0  0  0  0
  4 15  1  0  0  0  0
  4 16  1  0  0  0  0
  4 17  1  0  0  0  0
  5 14  2  0  0  0  0
  6  9  2  0  0  0  0
  6 25  1  0  0  0  0
  7  9  1  0  0  0  0
  7 26  2  0  0  0  0
  8 14  1  0  0  0  0
 12 18  1  0  0  0  0
 12 19  2  0  0  0  0
 13 23  1  0  0  0  0
 18 21  2  0  0  0  0
 19 20  1  0  0  0  0
 20 22  2  0  0  0  0
 21 22  1  0  0  0  0
 22 28  1  0  0  0  0
 23 28  1  0  0  0  0
 25 27  2  0  0  0  0
 26 27  1  0  0  0  0
M  END
>  <NScode>
NS-042515828-0000

>  <a_acc>
3

>  <a_don>
1

>  <chiral>
0

>  <opr_nrot>
5

>  <Weight>
409.43201

>  <druglike>
1

>  <lip_druglike>
1

>  <lip_violation>
0

>  <logS>
-4.8340101

$$$$
