NS-025059393-0000
  MOE2022           3D

 24 27  0  0  0  0  0  0  0  0999 V2000
   -7.5190    0.8620    0.1510 C   0  0  0  0  0  0  0  0  0  0  0  0
   -6.3780    1.5370    0.7290 O   0  0  0  0  0  0  0  0  0  0  0  0
   -5.0740    1.3680    0.3230 C   0  0  0  0  0  0  0  0  0  0  0  0
   -4.1040    2.1130    0.9920 C   0  0  0  0  0  0  0  0  0  0  0  0
   -2.7660    1.9860    0.6330 C   0  0  0  0  0  0  0  0  0  0  0  0
   -2.4210    1.1050   -0.3980 C   0  0  0  0  0  0  0  0  0  0  0  0
   -3.3920    0.3610   -1.0780 C   0  0  0  0  0  0  0  0  0  0  0  0
   -4.7280    0.4940   -0.7130 C   0  0  0  0  0  0  0  0  0  0  0  0
   -1.0360    0.9550   -0.7710 N   0  0  0  0  0  0  0  0  0  0  0  0
    0.0160    1.0220    0.0440 C   0  0  0  0  0  0  0  0  0  0  0  0
    1.1050    0.8170   -0.7360 C   0  0  0  0  0  0  0  0  0  0  0  0
    0.6940    0.6230   -2.0220 N   0  0  0  0  0  0  0  0  0  0  0  0
   -0.6090    0.7070   -2.0320 N   0  0  0  0  0  0  0  0  0  0  0  0
    2.4970    0.8000   -0.2960 C   0  0  0  0  0  0  0  0  0  0  0  0
    2.8400    0.9930    0.8680 O   0  0  0  0  0  0  0  0  0  0  0  0
    3.4520    0.5780   -1.2470 N   0  0  0  0  0  0  0  0  0  0  0  0
    4.8400    0.5500   -1.0710 C   0  0  0  0  0  0  0  0  0  0  0  0
    5.5550    1.1020   -2.0050 N   0  0  0  0  0  0  0  0  0  0  0  0
    6.8370    0.9100   -1.5720 N   0  0  0  0  0  0  0  0  0  0  0  0
    6.8940    0.2320   -0.4020 C   0  0  0  0  0  0  0  0  0  0  0  0
    5.6120   -0.0230   -0.0560 C   0  0  0  0  0  0  0  0  0  0  0  0
    5.1760   -0.7940    1.1690 C   0  0  0  0  0  0  0  0  0  0  0  0
    5.8180   -2.1200    1.4780 C   0  0  0  0  0  0  0  0  0  0  0  0
    4.4060   -2.0740    0.9870 C   0  0  0  0  0  0  0  0  0  0  0  0
  1  2  1  0  0  0  0
  2  3  1  0  0  0  0
  3  4  1  0  0  0  0
  3  8  2  0  0  0  0
  4  5  2  0  0  0  0
  5  6  1  0  0  0  0
  6  7  2  0  0  0  0
  6  9  1  0  0  0  0
  7  8  1  0  0  0  0
  9 10  1  0  0  0  0
  9 13  1  0  0  0  0
 10 11  2  0  0  0  0
 11 12  1  0  0  0  0
 11 14  1  0  0  0  0
 12 13  2  0  0  0  0
 14 15  2  0  0  0  0
 14 16  1  0  0  0  0
 16 17  1  0  0  0  0
 17 18  2  0  0  0  0
 17 21  1  0  0  0  0
 18 19  1  0  0  0  0
 19 20  1  0  0  0  0
 20 21  2  0  0  0  0
 21 22  1  0  0  0  0
 22 23  1  0  0  0  0
 22 24  1  0  0  0  0
 23 24  1  0  0  0  0
M  END
>  <NScode>
NS-025059393-0000

>  <a_acc>
6

>  <a_don>
3

>  <chiral>
0

>  <opr_nrot>
5

>  <Weight>
324.34399

>  <druglike>
1

>  <lip_druglike>
1

>  <lip_violation>
0

>  <logS>
-3.0685101

$$$$
