NS-012987316-0000
  MOE2022           3D

 21 23  0  0  0  0  0  0  0  0999 V2000
   -0.1300   -3.3400   -0.5110 C   0  0  0  0  0  0  0  0  0  0  0  0
    0.9250   -2.4670   -0.5750 N   0  0  0  0  0  0  0  0  0  0  0  0
   -1.2730   -2.9340   -0.4640 O   0  0  0  0  0  0  0  0  0  0  0  0
    0.9770    3.1330   -0.5280 N   0  0  0  0  0  0  0  0  0  0  0  0
    0.2330   -4.8180   -0.4780 C   0  0  0  0  0  0  0  0  0  0  0  0
    0.8810   -1.0480   -0.5520 C   0  0  0  0  0  0  0  0  0  0  0  0
    0.9230    1.7250   -0.5320 C   0  0  0  0  0  0  0  0  0  0  0  0
   -0.1390    3.9890   -0.5240 C   0  0  0  0  0  0  0  0  0  0  0  0
    1.8760   -0.3650   -1.2550 C   0  0  0  0  0  0  0  0  0  0  0  0
   -0.0880   -0.3470    0.1740 C   0  0  0  0  0  0  0  0  0  0  0  0
   -0.0660    1.0440    0.1840 C   0  0  0  0  0  0  0  0  0  0  0  0
    1.8980    1.0250   -1.2450 C   0  0  0  0  0  0  0  0  0  0  0  0
   -0.8960   -5.8010   -0.7990 C   0  0  0  0  0  0  0  0  0  0  0  0
    0.7360   -5.3100    0.8780 C   0  0  0  0  0  0  0  0  0  0  0  0
    0.0020    5.2560    0.0460 C   0  0  0  0  0  0  0  0  0  0  0  0
   -1.3530    3.5990   -1.0960 C   0  0  0  0  0  0  0  0  0  0  0  0
    0.6160   -6.8360    0.8470 C   0  0  0  0  0  0  0  0  0  0  0  0
   -0.5250   -7.1400   -0.1460 C   0  0  0  0  0  0  0  0  0  0  0  0
   -2.4310    4.4780   -1.0820 C   0  0  0  0  0  0  0  0  0  0  0  0
   -1.0820    6.1280    0.0550 C   0  0  0  0  0  0  0  0  0  0  0  0
   -2.2980    5.7410   -0.5060 C   0  0  0  0  0  0  0  0  0  0  0  0
  1  2  1  0  0  0  0
  1  3  2  0  0  0  0
  1  5  1  0  0  0  0
  2  6  1  0  0  0  0
  4  7  1  0  0  0  0
  4  8  1  0  0  0  0
  5 13  1  0  0  0  0
  5 14  1  0  0  0  0
  6  9  1  0  0  0  0
  6 10  2  0  0  0  0
  7 11  2  0  0  0  0
  7 12  1  0  0  0  0
  8 15  1  0  0  0  0
  8 16  2  0  0  0  0
  9 12  2  0  0  0  0
 10 11  1  0  0  0  0
 13 18  1  0  0  0  0
 14 17  1  0  0  0  0
 15 20  2  0  0  0  0
 16 19  1  0  0  0  0
 17 18  1  0  0  0  0
 19 21  2  0  0  0  0
 20 21  1  0  0  0  0
M  END
>  <NScode>
NS-012987316-0000

>  <a_acc>
1

>  <a_don>
2

>  <chiral>
0

>  <opr_nrot>
5

>  <Weight>
280.371

>  <druglike>
1

>  <lip_druglike>
1

>  <lip_violation>
0

>  <logS>
-4.5465899

$$$$
