NS-020173559-0000
  MOE2022           3D

 22 23  0  0  1  0  0  0  0  0999 V2000
    2.5410   -1.3460   -0.6750 C   0  0  0  0  0  0  0  0  0  0  0  0
    1.7870   -0.4420    0.2960 C   0  0  3  0  0  0  0  0  0  0  0  0
    0.4160   -0.3170   -0.1760 N   0  0  0  0  0  0  0  0  0  0  0  0
    3.9600   -1.5890   -0.2420 C   0  0  0  0  0  0  0  0  0  0  0  0
   -0.6530   -0.3740    0.6110 C   0  0  0  0  0  0  0  0  0  0  0  0
   -6.5790    1.1630   -0.8080 S   0  0  0  0  0  0  0  0  0  0  0  0
   -4.4970    0.0060    0.1750 C   0  0  0  0  0  0  0  0  0  0  0  0
    2.3640    0.9590    0.5090 C   0  0  0  0  0  0  0  0  0  0  0  0
   -5.1090    1.2260    0.0980 C   0  0  0  0  0  0  0  0  0  0  0  0
   -6.3610   -0.5280   -1.0850 C   0  0  0  0  0  0  0  0  0  0  0  0
   -5.2160   -0.9950   -0.5050 C   0  0  0  0  0  0  0  0  0  0  0  0
    4.8500   -1.2310   -1.0400 O   0  5  0  0  0  0  0  0  0  0  0  0
   -0.5860   -0.5860    1.8160 O   0  0  0  0  0  0  0  0  0  0  0  0
    3.2550    1.5620   -0.3920 C   0  0  0  0  0  0  0  0  0  0  0  0
    1.9630    1.6680    1.6490 C   0  0  0  0  0  0  0  0  0  0  0  0
   -1.9960   -0.1470   -0.0700 C   0  0  0  0  0  0  0  0  0  0  0  0
   -3.1870   -0.2320    0.8920 C   0  0  0  0  0  0  0  0  0  0  0  0
    3.3120    3.5230    0.9770 C   0  0  0  0  0  0  0  0  0  0  0  0
    4.1180   -2.1600    0.8550 O   0  0  0  0  0  0  0  0  0  0  0  0
    2.4340    2.9560    1.8880 C   0  0  0  0  0  0  0  0  0  0  0  0
    3.7340    2.8480   -0.1590 C   0  0  0  0  0  0  0  0  0  0  0  0
    3.7710    4.7790    1.2040 F   0  0  0  0  0  0  0  0  0  0  0  0
  1  2  1  0  0  0  0
  1  4  1  0  0  0  0
  2  3  1  0  0  0  0
  2  8  1  0  0  0  0
  3  5  1  0  0  0  0
  4 12  1  0  0  0  0
  4 19  2  0  0  0  0
  5 13  2  0  0  0  0
  5 16  1  0  0  0  0
  6  9  1  0  0  0  0
  6 10  1  0  0  0  0
  7  9  2  0  0  0  0
  7 11  1  0  0  0  0
  7 17  1  0  0  0  0
  8 14  1  0  0  0  0
  8 15  2  0  0  0  0
 10 11  2  0  0  0  0
 14 21  2  0  0  0  0
 15 20  1  0  0  0  0
 16 17  1  0  0  0  0
 18 20  2  0  0  0  0
 18 21  1  0  0  0  0
 18 22  1  0  0  0  0
M  CHG  1  12  -1
M  END
>  <NScode>
NS-020173559-0000

>  <a_acc>
2

>  <a_don>
3

>  <chiral>
1

>  <opr_nrot>
7

>  <Weight>
321.37201

>  <druglike>
1

>  <lip_druglike>
1

>  <lip_violation>
0

>  <logS>
-3.06879

$$$$
