NS-012377116-0000
  MOE2022           3D

 29 32  0  0  0  0  0  0  0  0999 V2000
    6.2530   -3.4500    0.4780 C   0  0  0  0  0  0  0  0  0  0  0  0
    7.5510   -1.8490   -0.1700 C   0  0  0  0  0  0  0  0  0  0  0  0
    7.9850   -3.0790   -0.5490 C   0  0  0  0  0  0  0  0  0  0  0  0
    6.4000   -2.1090    0.5120 N   0  0  0  0  0  0  0  0  0  0  0  0
    7.2010   -4.1030   -0.1680 N   0  0  0  0  0  0  0  0  0  0  0  0
    9.1720   -3.1620   -1.2760 N   0  0  0  0  0  0  0  0  0  0  0  0
    9.3850   -0.7480   -1.2000 N   0  0  0  0  0  0  0  0  0  0  0  0
    9.8920   -2.0040   -1.5720 C   0  0  0  0  0  0  0  0  0  0  0  0
    8.2100   -0.6400   -0.4620 C   0  0  0  0  0  0  0  0  0  0  0  0
    5.0950   -3.7690    1.1440 N   0  0  0  0  0  0  0  0  0  0  0  0
    5.3330   -1.5480    1.2140 C   0  0  0  0  0  0  0  0  0  0  0  0
    4.5410   -2.5750    1.6030 C   0  0  0  0  0  0  0  0  0  0  0  0
    4.5990   -5.1470    1.3970 C   0  0  0  0  0  0  0  0  0  0  0  0
   10.9700   -2.0780   -2.1590 O   0  0  0  0  0  0  0  0  0  0  0  0
    7.8310    0.4820   -0.1200 O   0  0  0  0  0  0  0  0  0  0  0  0
    5.1030   -6.2920    0.5160 C   0  0  0  0  0  0  0  0  0  0  0  0
    5.7070   -7.2510    0.9950 O   0  0  0  0  0  0  0  0  0  0  0  0
    9.7050   -4.4830   -1.6380 C   0  0  0  0  0  0  0  0  0  0  0  0
   10.1590    0.4640   -1.5330 C   0  0  0  0  0  0  0  0  0  0  0  0
    4.8510   -6.3500   -0.8100 O   0  0  0  0  0  0  0  0  0  0  0  0
    5.2100   -0.0560    1.4400 C   0  0  0  0  0  0  0  0  0  0  0  0
    3.2630   -2.5560    2.4100 C   0  0  0  0  0  0  0  0  0  0  0  0
    4.1940   -5.3250   -1.5880 C   0  0  0  0  0  0  0  0  0  0  0  0
    2.7570   -5.0890   -1.1690 C   0  0  0  0  0  0  0  0  0  0  0  0
    2.2880   -3.7910   -0.9690 C   0  0  0  0  0  0  0  0  0  0  0  0
    1.8920   -6.1670   -0.9820 C   0  0  0  0  0  0  0  0  0  0  0  0
    0.5740   -5.9490   -0.5930 C   0  0  0  0  0  0  0  0  0  0  0  0
    0.9690   -3.5730   -0.5830 C   0  0  0  0  0  0  0  0  0  0  0  0
    0.1120   -4.6520   -0.3930 C   0  0  0  0  0  0  0  0  0  0  0  0
  1  4  1  0  0  0  0
  1  5  2  0  0  0  0
  1 10  1  0  0  0  0
  2  3  2  0  0  0  0
  2  4  1  0  0  0  0
  2  9  1  0  0  0  0
  3  5  1  0  0  0  0
  3  6  1  0  0  0  0
  4 11  1  0  0  0  0
  6  8  1  0  0  0  0
  6 18  1  0  0  0  0
  7  8  1  0  0  0  0
  7  9  1  0  0  0  0
  7 19  1  0  0  0  0
  8 14  2  0  0  0  0
  9 15  2  0  0  0  0
 10 12  1  0  0  0  0
 10 13  1  0  0  0  0
 11 12  2  0  0  0  0
 11 21  1  0  0  0  0
 12 22  1  0  0  0  0
 13 16  1  0  0  0  0
 16 17  2  0  0  0  0
 16 20  1  0  0  0  0
 20 23  1  0  0  0  0
 23 24  1  0  0  0  0
 24 25  1  0  0  0  0
 24 26  2  0  0  0  0
 25 28  2  0  0  0  0
 26 27  1  0  0  0  0
 27 29  2  0  0  0  0
 28 29  1  0  0  0  0
M  END
>  <NScode>
NS-012377116-0000

>  <a_acc>
4

>  <a_don>
0

>  <chiral>
0

>  <opr_nrot>
4

>  <Weight>
395.41901

>  <druglike>
1

>  <lip_druglike>
1

>  <lip_violation>
0

>  <logS>
-4.1940298

$$$$
