NS-006742994-0000
  MOE2022           3D

 26 28  0  0  1  0  0  0  0  0999 V2000
    3.4300    6.3490    1.1460 C   0  0  0  0  0  0  0  0  0  0  0  0
    2.8760    4.9590    1.4050 C   0  0  0  0  0  0  0  0  0  0  0  0
    3.3470    4.2640    2.5210 C   0  0  0  0  0  0  0  0  0  0  0  0
    2.8860    2.9830    2.8080 C   0  0  0  0  0  0  0  0  0  0  0  0
    1.9540    2.3790    1.9790 C   0  0  0  0  0  0  0  0  0  0  0  0
    1.4760    3.0690    0.8630 C   0  0  0  0  0  0  0  0  0  0  0  0
    0.5710    2.4390   -0.0310 N   0  0  0  0  0  0  0  0  0  0  0  0
   -0.4320    1.5510    0.2770 C   0  0  0  0  0  0  0  0  0  0  0  0
   -0.6830    1.2620    1.4300 O   0  0  0  0  0  0  0  0  0  0  0  0
   -1.1980    0.9290   -0.8890 C   0  0  0  0  0  0  0  0  0  0  0  0
   -0.8210   -0.4940   -1.1930 N   0  0  0  0  0  0  0  0  0  0  0  0
    0.5370   -0.6380   -1.7630 C   0  0  0  0  0  0  0  0  0  0  0  0
    1.3220   -1.7320   -1.0210 C   0  0  0  0  0  0  0  0  0  0  0  0
    0.6820   -3.1260   -1.0660 C   0  0  0  0  0  0  0  0  0  0  0  0
   -0.7710   -3.1250   -0.6960 N   0  3  3  0  0  0  0  0  0  0  0  0
   -1.2520   -4.2600    0.1620 C   0  0  0  0  0  0  0  0  0  0  0  0
   -2.6710   -4.0790    0.6450 C   0  0  0  0  0  0  0  0  0  0  0  0
   -3.6660   -4.9770    0.2550 C   0  0  0  0  0  0  0  0  0  0  0  0
   -4.9780   -4.7960    0.6810 C   0  0  0  0  0  0  0  0  0  0  0  0
   -5.3030   -3.7180    1.4980 C   0  0  0  0  0  0  0  0  0  0  0  0
   -4.3160   -2.8210    1.8900 C   0  0  0  0  0  0  0  0  0  0  0  0
   -3.0030   -3.0000    1.4660 C   0  0  0  0  0  0  0  0  0  0  0  0
   -1.6860   -2.7510   -1.8440 C   0  0  0  0  0  0  0  0  0  0  0  0
   -1.8590   -1.2240   -1.9750 C   0  0  0  0  0  0  0  0  0  0  0  0
    1.9180    4.3710    0.5680 C   0  0  0  0  0  0  0  0  0  0  0  0
    1.3690    5.1170   -0.6450 C   0  0  0  0  0  0  0  0  0  0  0  0
  1  2  1  0  0  0  0
  2  3  1  0  0  0  0
  2 25  2  0  0  0  0
  3  4  2  0  0  0  0
  4  5  1  0  0  0  0
  5  6  2  0  0  0  0
  6  7  1  0  0  0  0
  6 25  1  0  0  0  0
  7  8  1  0  0  0  0
  8  9  2  0  0  0  0
  8 10  1  0  0  0  0
 10 11  1  0  0  0  0
 11 12  1  0  0  0  0
 11 24  1  0  0  0  0
 12 13  1  0  0  0  0
 13 14  1  0  0  0  0
 14 15  1  0  0  0  0
 15 16  1  0  0  0  0
 15 23  1  0  0  0  0
 16 17  1  0  0  0  0
 17 18  1  0  0  0  0
 17 22  2  0  0  0  0
 18 19  2  0  0  0  0
 19 20  1  0  0  0  0
 20 21  2  0  0  0  0
 21 22  1  0  0  0  0
 23 24  1  0  0  0  0
 25 26  1  0  0  0  0
M  CHG  1  15   1
M  END
>  <NScode>
NS-006742994-0000

>  <a_acc>
3

>  <a_don>
1

>  <chiral>
0

>  <opr_nrot>
8

>  <Weight>
351.49399

>  <druglike>
1

>  <lip_druglike>
1

>  <lip_violation>
0

>  <logS>
-4.1356502

$$$$
