NS-022412914-0000
  MOE2022           3D

 24 26  0  0  1  0  0  0  0  0999 V2000
    2.3520   -2.5730   -0.5400 C   0  0  0  0  0  0  0  0  0  0  0  0
   -1.8860   -2.2790    1.0990 N   0  0  0  0  0  0  0  0  0  0  0  0
    3.6150   -2.4370    0.0210 N   0  0  0  0  0  0  0  0  0  0  0  0
   -0.8210   -2.0950   -1.2010 C   0  0  0  0  0  0  0  0  0  0  0  0
   -1.6600   -1.0300    1.5750 C   0  0  0  0  0  0  0  0  0  0  0  0
   -0.9910   -2.9010    0.1150 C   0  0  2  0  0  0  0  0  0  0  0  0
    0.2800   -1.4100   -1.5120 N   0  0  0  0  0  0  0  0  0  0  0  0
    1.5300   -1.2820   -0.7460 C   0  0  3  0  0  0  0  0  0  0  0  0
    4.4680   -3.5500    0.2730 C   0  0  0  0  0  0  0  0  0  0  0  0
    1.9390   -3.6820   -0.8330 O   0  0  0  0  0  0  0  0  0  0  0  0
   -1.7090   -2.0280   -2.0440 O   0  0  0  0  0  0  0  0  0  0  0  0
   -2.4830   -0.1340    1.5900 O   0  0  0  0  0  0  0  0  0  0  0  0
    6.6000   -4.5850   -0.0070 N   0  0  0  0  0  0  0  0  0  0  0  0
   -0.4530   -0.8490    2.1130 N   0  0  0  0  0  0  0  0  0  0  0  0
   -3.2440   -2.7150    0.7840 C   0  0  0  0  0  0  0  0  0  0  0  0
    4.0890   -1.0870    0.3490 C   0  0  0  0  0  0  0  0  0  0  0  0
    5.7640   -3.5760   -0.2570 C   0  0  0  0  0  0  0  0  0  0  0  0
   -1.6510   -4.2590   -0.1270 C   0  0  0  0  0  0  0  0  0  0  0  0
    2.3940   -0.1650   -1.3650 C   0  0  0  0  0  0  0  0  0  0  0  0
   -3.1630   -4.0310   -0.0040 C   0  0  0  0  0  0  0  0  0  0  0  0
    3.8230   -0.0860   -0.7890 C   0  0  0  0  0  0  0  0  0  0  0  0
    6.1890   -5.6040    0.7540 C   0  0  0  0  0  0  0  0  0  0  0  0
    4.0210   -4.6050    1.0630 C   0  0  0  0  0  0  0  0  0  0  0  0
    4.9070   -5.6460    1.3010 C   0  0  0  0  0  0  0  0  0  0  0  0
  1  3  1  0  0  0  0
  1  8  1  0  0  0  0
  1 10  2  0  0  0  0
  2  5  1  0  0  0  0
  2  6  1  0  0  0  0
  2 15  1  0  0  0  0
  3  9  1  0  0  0  0
  3 16  1  0  0  0  0
  4  6  1  0  0  0  0
  4  7  1  0  0  0  0
  4 11  2  0  0  0  0
  5 12  2  0  0  0  0
  5 14  1  0  0  0  0
  6 18  1  0  0  0  0
  7  8  1  0  0  0  0
  8 19  1  0  0  0  0
  9 17  2  0  0  0  0
  9 23  1  0  0  0  0
 13 17  1  0  0  0  0
 13 22  2  0  0  0  0
 15 20  1  0  0  0  0
 16 21  1  0  0  0  0
 18 20  1  0  0  0  0
 19 21  1  0  0  0  0
 22 24  1  0  0  0  0
 23 24  2  0  0  0  0
M  END
>  <NScode>
NS-022412914-0000

>  <a_acc>
4

>  <a_don>
2

>  <chiral>
2

>  <opr_nrot>
5

>  <Weight>
331.37601

>  <druglike>
1

>  <lip_druglike>
1

>  <lip_violation>
0

>  <logS>
-1.51396

$$$$
