NS-022250605-0000
  MOE2022           3D

 17 17  0  0  1  0  0  0  0  0999 V2000
    7.0200   -5.1540    0.4890 C   0  0  0  0  0  0  0  0  0  0  0  0
    6.4750   -4.9400   -0.7160 N   0  0  0  0  0  0  0  0  0  0  0  0
    5.1930   -5.4350   -1.2080 C   0  0  3  0  0  0  0  0  0  0  0  0
    4.0290   -4.6080   -0.6800 C   0  0  0  0  0  0  0  0  0  0  0  0
    6.5470   -5.9520    1.2910 O   0  0  0  0  0  0  0  0  0  0  0  0
    8.3130   -4.4090    0.8090 C   0  0  3  0  0  0  0  0  0  0  0  0
    3.3910   -3.6920   -1.5210 C   0  0  0  0  0  0  0  0  0  0  0  0
    3.5900   -4.7410    0.6410 C   0  0  0  0  0  0  0  0  0  0  0  0
    1.9010   -3.0710    0.2640 C   0  0  0  0  0  0  0  0  0  0  0  0
    2.5280   -3.9760    1.1130 C   0  0  0  0  0  0  0  0  0  0  0  0
    2.3280   -2.9230   -1.0560 C   0  0  0  0  0  0  0  0  0  0  0  0
    8.3160   -2.7440    0.1130 Cl  0  0  0  0  0  0  0  0  0  0  0  0
    0.8550   -2.3390    0.7820 O   0  0  0  0  0  0  0  0  0  0  0  0
    4.9960   -6.9490   -1.0570 C   0  0  0  0  0  0  0  0  0  0  0  0
    9.5720   -5.1790    0.3530 C   0  0  0  0  0  0  0  0  0  0  0  0
    0.1030   -1.3430    0.0540 C   0  0  0  0  0  0  0  0  0  0  0  0
   10.8990   -4.5820    0.8490 C   0  0  0  0  0  0  0  0  0  0  0  0
  1  2  1  0  0  0  0
  1  5  2  0  0  0  0
  1  6  1  0  0  0  0
  2  3  1  0  0  0  0
  3  4  1  0  0  0  0
  3 14  1  0  0  0  0
  4  7  1  0  0  0  0
  4  8  2  0  0  0  0
  6 12  1  0  0  0  0
  6 15  1  0  0  0  0
  7 11  2  0  0  0  0
  8 10  1  0  0  0  0
  9 10  2  0  0  0  0
  9 11  1  0  0  0  0
  9 13  1  0  0  0  0
 13 16  1  0  0  0  0
 15 17  1  0  0  0  0
M  END
>  <NScode>
NS-022250605-0000

>  <a_acc>
2

>  <a_don>
1

>  <chiral>
2

>  <opr_nrot>
5

>  <Weight>
255.745

>  <druglike>
1

>  <lip_druglike>
1

>  <lip_violation>
0

>  <logS>
-3.2028601

$$$$
