NS-011684277-0000
  MOE2022           3D

 12 13  0  0  0  0  0  0  0  0999 V2000
    7.0300   -3.7700    0.0320 C   0  0  0  0  0  0  0  0  0  0  0  0
    5.6210   -4.0940    0.0410 O   0  0  0  0  0  0  0  0  0  0  0  0
    4.4410   -3.3570    0.0200 C   0  0  0  0  0  0  0  0  0  0  0  0
    4.3400   -1.9290    0.0210 C   0  0  0  0  0  0  0  0  0  0  0  0
    5.8170   -0.7430    0.0580 Br  0  0  0  0  0  0  0  0  0  0  0  0
    3.0840   -1.3400   -0.0040 C   0  0  0  0  0  0  0  0  0  0  0  0
    1.9260   -2.1310   -0.0300 C   0  0  0  0  0  0  0  0  0  0  0  0
    0.6250   -1.6690   -0.0560 N   0  0  0  0  0  0  0  0  0  0  0  0
   -0.2020   -2.6640   -0.0730 C   0  0  0  0  0  0  0  0  0  0  0  0
    0.4970   -4.2470   -0.0610 S   0  0  0  0  0  0  0  0  0  0  0  0
    2.0510   -3.5130   -0.0290 C   0  0  0  0  0  0  0  0  0  0  0  0
    3.3010   -4.1430   -0.0040 C   0  0  0  0  0  0  0  0  0  0  0  0
  1  2  1  0  0  0  0
  2  3  1  0  0  0  0
  3  4  1  0  0  0  0
  3 12  2  0  0  0  0
  4  5  1  0  0  0  0
  4  6  2  0  0  0  0
  6  7  1  0  0  0  0
  7  8  1  0  0  0  0
  7 11  2  0  0  0  0
  8  9  2  0  0  0  0
  9 10  1  0  0  0  0
 10 11  1  0  0  0  0
 11 12  1  0  0  0  0
M  END
>  <NScode>
NS-011684277-0000

>  <a_acc>
2

>  <a_don>
0

>  <chiral>
0

>  <opr_nrot>
1

>  <Weight>
244.112

>  <druglike>
1

>  <lip_druglike>
1

>  <lip_violation>
0

>  <logS>
-3.2107601

$$$$
