NS-019542326-0000
  MOE2022           3D

 24 26  0  0  1  0  0  0  0  0999 V2000
    1.5030   -1.1550   -1.7450 S   0  0  0  0  0  0  0  0  0  0  0  0
    0.2750   -0.9510   -0.5760 C   0  0  0  0  0  0  0  0  0  0  0  0
    0.3120   -1.8100    0.3980 N   0  0  0  0  0  0  0  0  0  0  0  0
   -1.9490    0.0390    0.2610 N   0  3  3  0  0  0  0  0  0  0  0  0
    1.3490   -2.7030    0.2710 N   0  0  0  0  0  0  0  0  0  0  0  0
    2.0450   -2.4630   -0.8020 C   0  0  0  0  0  0  0  0  0  0  0  0
   -2.1940    2.4290    1.0710 C   0  0  0  0  0  0  0  0  0  0  0  0
   -2.8400    1.2320    0.3360 C   0  0  3  0  0  0  0  0  0  0  0  0
   -0.7540    0.1540   -0.6980 C   0  0  0  0  0  0  0  0  0  0  0  0
   -1.9110    3.5030    0.3240 O   0  0  0  0  0  0  0  0  0  0  0  0
   -1.6780    2.2620    2.1750 O   0  0  0  0  0  0  0  0  0  0  0  0
    3.1480   -3.1660   -1.2150 O   0  0  0  0  0  0  0  0  0  0  0  0
   -2.8170   -1.1650    0.0950 C   0  0  0  0  0  0  0  0  0  0  0  0
   -0.7070    4.2580    0.6050 C   0  0  0  0  0  0  0  0  0  0  0  0
    0.4930    3.4750    0.1090 C   0  0  0  0  0  0  0  0  0  0  0  0
   -4.1290    0.7040    0.9870 C   0  0  0  0  0  0  0  0  0  0  0  0
   -4.2380   -0.7260    0.4270 C   0  0  0  0  0  0  0  0  0  0  0  0
    3.6340   -4.2840   -0.4410 C   0  0  0  0  0  0  0  0  0  0  0  0
    1.2410    2.6940    0.9890 C   0  0  0  0  0  0  0  0  0  0  0  0
    0.8260    3.4930   -1.2450 C   0  0  0  0  0  0  0  0  0  0  0  0
    4.8810   -4.8950   -1.0750 C   0  0  0  0  0  0  0  0  0  0  0  0
    1.8980    2.7400   -1.7140 C   0  0  0  0  0  0  0  0  0  0  0  0
    2.3120    1.9390    0.5190 C   0  0  0  0  0  0  0  0  0  0  0  0
    2.6420    1.9630   -0.8310 C   0  0  0  0  0  0  0  0  0  0  0  0
  1  2  1  0  0  0  0
  1  6  1  0  0  0  0
  2  3  2  0  0  0  0
  2  9  1  0  0  0  0
  3  5  1  0  0  0  0
  4  8  1  0  0  0  0
  4  9  1  0  0  0  0
  4 13  1  0  0  0  0
  5  6  2  0  0  0  0
  6 12  1  0  0  0  0
  7  8  1  0  0  0  0
  7 10  1  0  0  0  0
  7 11  2  0  0  0  0
  8 16  1  0  0  0  0
 10 14  1  0  0  0  0
 12 18  1  0  0  0  0
 13 17  1  0  0  0  0
 14 15  1  0  0  0  0
 15 19  1  0  0  0  0
 15 20  2  0  0  0  0
 16 17  1  0  0  0  0
 18 21  1  0  0  0  0
 19 23  2  0  0  0  0
 20 22  1  0  0  0  0
 22 24  2  0  0  0  0
 23 24  1  0  0  0  0
M  CHG  1   4   1
M  END
>  <NScode>
NS-019542326-0000

>  <a_acc>
4

>  <a_don>
0

>  <chiral>
1

>  <opr_nrot>
8

>  <Weight>
347.439

>  <druglike>
1

>  <lip_druglike>
1

>  <lip_violation>
0

>  <logS>
-4.1324

$$$$
