NS-016580585-0000
  MOE2022           3D

 20 21  0  0  0  0  0  0  0  0999 V2000
   -0.8380   -0.8600    0.5450 S   0  0  0  0  0  0  0  0  0  0  0  0
   -1.8390   -1.9990   -0.0730 N   0  0  0  0  0  0  0  0  0  0  0  0
   -1.4570   -0.2600    1.6720 O   0  0  0  0  0  0  0  0  0  0  0  0
    0.4490   -1.4210    0.7410 O   0  0  0  0  0  0  0  0  0  0  0  0
   -0.7340    0.2300   -0.6500 N   0  0  0  0  0  0  0  0  0  0  0  0
    2.6690    5.6060    0.6510 C   0  0  0  0  0  0  0  0  0  0  0  0
    1.7770    2.9980    0.2130 C   0  0  0  0  0  0  0  0  0  0  0  0
    3.2240    7.2250    0.9230 Cl  0  0  0  0  0  0  0  0  0  0  0  0
   -0.2210    1.5610   -0.3460 C   0  0  0  0  0  0  0  0  0  0  0  0
    2.7930    5.0300   -0.6140 C   0  0  0  0  0  0  0  0  0  0  0  0
    2.0990    4.8800    1.6970 C   0  0  0  0  0  0  0  0  0  0  0  0
    1.6540    3.5810    1.4750 C   0  0  0  0  0  0  0  0  0  0  0  0
    2.3460    3.7300   -0.8300 C   0  0  0  0  0  0  0  0  0  0  0  0
   -1.8300   -3.3090    0.5860 C   0  0  0  0  0  0  0  0  0  0  0  0
   -3.1920   -1.5640   -0.4390 C   0  0  0  0  0  0  0  0  0  0  0  0
    1.2760    1.5880   -0.0200 C   0  0  0  0  0  0  0  0  0  0  0  0
   -3.9160   -2.4770   -1.4440 C   0  0  0  0  0  0  0  0  0  0  0  0
   -1.9360   -4.4600   -0.4220 C   0  0  0  0  0  0  0  0  0  0  0  0
   -3.3650   -4.9100   -0.7680 C   0  0  0  0  0  0  0  0  0  0  0  0
   -4.4230   -3.7980   -0.8470 C   0  0  0  0  0  0  0  0  0  0  0  0
  1  2  1  0  0  0  0
  1  3  2  0  0  0  0
  1  4  2  0  0  0  0
  1  5  1  0  0  0  0
  2 14  1  0  0  0  0
  2 15  1  0  0  0  0
  5  9  1  0  0  0  0
  6  8  1  0  0  0  0
  6 10  1  0  0  0  0
  6 11  2  0  0  0  0
  7 12  2  0  0  0  0
  7 13  1  0  0  0  0
  7 16  1  0  0  0  0
  9 16  1  0  0  0  0
 10 13  2  0  0  0  0
 11 12  1  0  0  0  0
 14 18  1  0  0  0  0
 15 17  1  0  0  0  0
 17 20  1  0  0  0  0
 18 19  1  0  0  0  0
 19 20  1  0  0  0  0
M  END
>  <NScode>
NS-016580585-0000

>  <a_acc>
2

>  <a_don>
1

>  <chiral>
0

>  <opr_nrot>
6

>  <Weight>
316.853

>  <druglike>
1

>  <lip_druglike>
1

>  <lip_violation>
0

>  <logS>
-2.6914501

$$$$
