NS-006928538-0000
  MOE2022           3D

 20 21  0  0  0  0  0  0  0  0999 V2000
   -7.0530    1.3080   -1.6470 C   0  0  0  0  0  0  0  0  0  0  0  0
   -6.0280    1.1180   -0.5610 C   0  0  0  0  0  0  0  0  0  0  0  0
   -4.7860    0.7920   -0.7670 N   0  0  0  0  0  0  0  0  0  0  0  0
   -4.1080    0.6980    0.4120 C   0  0  0  0  0  0  0  0  0  0  0  0
   -2.6410    0.3440    0.4380 C   0  0  0  0  0  0  0  0  0  0  0  0
   -1.7850    1.4790   -0.1260 C   0  0  0  0  0  0  0  0  0  0  0  0
   -0.3710    1.1180   -0.0800 N   0  0  0  0  0  0  0  0  0  0  0  0
    0.4200    1.3290    0.9760 C   0  0  0  0  0  0  0  0  0  0  0  0
   -0.0280    1.7960    2.0180 O   0  0  0  0  0  0  0  0  0  0  0  0
    1.8870    0.9860    0.8180 C   0  0  0  0  0  0  0  0  0  0  0  0
    2.1270   -0.2620    0.0930 O   0  0  0  0  0  0  0  0  0  0  0  0
    3.3750   -0.7500   -0.2490 C   0  0  0  0  0  0  0  0  0  0  0  0
    4.5410   -0.0650    0.1050 C   0  0  0  0  0  0  0  0  0  0  0  0
    5.7770   -0.5810   -0.2680 C   0  0  0  0  0  0  0  0  0  0  0  0
    5.8480   -1.7710   -0.9860 C   0  0  0  0  0  0  0  0  0  0  0  0
    4.6820   -2.4510   -1.3320 C   0  0  0  0  0  0  0  0  0  0  0  0
    3.4350   -1.9490   -0.9650 C   0  0  0  0  0  0  0  0  0  0  0  0
    2.1710   -2.6940   -1.3440 C   0  0  0  0  0  0  0  0  0  0  0  0
   -4.8500    0.9610    1.5190 C   0  0  0  0  0  0  0  0  0  0  0  0
   -6.4610    1.3380    1.0930 S   0  0  0  0  0  0  0  0  0  0  0  0
  1  2  1  0  0  0  0
  2  3  2  0  0  0  0
  2 20  1  0  0  0  0
  3  4  1  0  0  0  0
  4  5  1  0  0  0  0
  4 19  2  0  0  0  0
  5  6  1  0  0  0  0
  6  7  1  0  0  0  0
  7  8  1  0  0  0  0
  8  9  2  0  0  0  0
  8 10  1  0  0  0  0
 10 11  1  0  0  0  0
 11 12  1  0  0  0  0
 12 13  1  0  0  0  0
 12 17  2  0  0  0  0
 13 14  2  0  0  0  0
 14 15  1  0  0  0  0
 15 16  2  0  0  0  0
 16 17  1  0  0  0  0
 17 18  1  0  0  0  0
 19 20  1  0  0  0  0
M  END
>  <NScode>
NS-006928538-0000

>  <a_acc>
3

>  <a_don>
1

>  <chiral>
0

>  <opr_nrot>
6

>  <Weight>
290.38699

>  <druglike>
1

>  <lip_druglike>
1

>  <lip_violation>
0

>  <logS>
-2.61251

$$$$
