NS-017861101-0000
  MOE2022           3D

 22 24  0  0  0  0  0  0  0  0999 V2000
    0.8300   -4.3350    0.4870 N   0  0  0  0  0  0  0  0  0  0  0  0
    1.7290   -3.3150    0.4170 C   0  0  0  0  0  0  0  0  0  0  0  0
    1.2890   -2.0920   -0.0920 N   0  0  0  0  0  0  0  0  0  0  0  0
   -0.8980   -2.9670   -0.4730 C   0  0  0  0  0  0  0  0  0  0  0  0
   -0.4630   -4.2220    0.0720 C   0  0  0  0  0  0  0  0  0  0  0  0
    0.8310    2.3330    0.4930 N   0  0  0  0  0  0  0  0  0  0  0  0
   -0.0200   -1.9280   -0.5490 C   0  0  0  0  0  0  0  0  0  0  0  0
    0.7760    1.8040    1.7550 N   0  0  0  0  0  0  0  0  0  0  0  0
    1.6490    0.3270    0.3420 C   0  0  0  0  0  0  0  0  0  0  0  0
    1.3580    1.4320   -0.3810 C   0  0  0  0  0  0  0  0  0  0  0  0
   -2.2500   -2.8430   -0.9240 C   0  0  0  0  0  0  0  0  0  0  0  0
    2.2420   -0.9710   -0.1590 C   0  0  0  0  0  0  0  0  0  0  0  0
   -3.3230   -2.7160   -1.2950 N   0  0  0  0  0  0  0  0  0  0  0  0
    1.2740    0.6060    1.6520 C   0  0  0  0  0  0  0  0  0  0  0  0
    2.8730   -3.4960    0.7920 O   0  0  0  0  0  0  0  0  0  0  0  0
   -1.1330   -5.2330    0.2080 O   0  0  0  0  0  0  0  0  0  0  0  0
    0.3710    3.6590    0.1640 C   0  0  0  0  0  0  0  0  0  0  0  0
    1.0120    4.3870   -0.8420 C   0  0  0  0  0  0  0  0  0  0  0  0
   -0.7140    4.1920    0.8640 C   0  0  0  0  0  0  0  0  0  0  0  0
   -1.1670    5.4670    0.5430 C   0  0  0  0  0  0  0  0  0  0  0  0
    0.5490    5.6620   -1.1530 C   0  0  0  0  0  0  0  0  0  0  0  0
   -0.5380    6.2000   -0.4640 C   0  0  0  0  0  0  0  0  0  0  0  0
  1  2  1  0  0  0  0
  1  5  1  0  0  0  0
  2  3  1  0  0  0  0
  2 15  2  0  0  0  0
  3  7  1  0  0  0  0
  3 12  1  0  0  0  0
  4  5  1  0  0  0  0
  4  7  2  0  0  0  0
  4 11  1  0  0  0  0
  5 16  2  0  0  0  0
  6  8  1  0  0  0  0
  6 10  1  0  0  0  0
  6 17  1  0  0  0  0
  8 14  2  0  0  0  0
  9 10  2  0  0  0  0
  9 12  1  0  0  0  0
  9 14  1  0  0  0  0
 11 13  3  0  0  0  0
 17 18  1  0  0  0  0
 17 19  2  0  0  0  0
 18 21  2  0  0  0  0
 19 20  1  0  0  0  0
 20 22  2  0  0  0  0
 21 22  1  0  0  0  0
M  END
>  <NScode>
NS-017861101-0000

>  <a_acc>
4

>  <a_don>
1

>  <chiral>
0

>  <opr_nrot>
4

>  <Weight>
293.28598

>  <druglike>
1

>  <lip_druglike>
1

>  <lip_violation>
0

>  <logS>
-2.6158299

$$$$
