NS-025071873-0000
  MOE2022           3D

 26 28  0  0  1  0  0  0  0  0999 V2000
   -1.1040    3.1200   -0.5700 C   0  0  0  0  0  0  0  0  0  0  0  0
   -0.6440    2.1820    0.4510 N   0  0  0  0  0  0  0  0  0  0  0  0
   -1.2050    1.0330    0.8360 C   0  0  0  0  0  0  0  0  0  0  0  0
   -0.6010    0.3910    1.6850 O   0  0  0  0  0  0  0  0  0  0  0  0
   -2.5580    0.5390    0.2320 C   0  0  3  0  0  0  0  0  0  0  0  0
   -3.7330    1.4210    0.7420 C   0  0  0  0  0  0  0  0  0  0  0  0
   -5.0970    0.7150    0.6640 C   0  0  0  0  0  0  0  0  0  0  0  0
   -5.0700   -0.5660    1.5190 C   0  0  0  0  0  0  0  0  0  0  0  0
   -3.6640   -1.1690    1.6600 C   0  0  0  0  0  0  0  0  0  0  0  0
   -2.8500   -0.9030    0.4620 N   0  0  0  0  0  0  0  0  0  0  0  0
   -2.4740   -1.9340   -0.3370 C   0  0  0  0  0  0  0  0  0  0  0  0
   -2.8990   -3.0660   -0.1010 O   0  0  0  0  0  0  0  0  0  0  0  0
   -1.5580   -1.6990   -1.5580 C   0  0  3  0  0  0  0  0  0  0  0  0
   -1.4830   -2.8930   -2.5280 C   0  0  0  0  0  0  0  0  0  0  0  0
   -0.2070   -1.2410   -1.2110 N   0  0  0  0  0  0  0  0  0  0  0  0
    0.3820   -0.0860   -1.6870 C   0  0  0  0  0  0  0  0  0  0  0  0
   -0.1820    0.6530   -2.4830 O   0  0  0  0  0  0  0  0  0  0  0  0
    1.6760    0.0490   -1.0610 C   0  0  0  0  0  0  0  0  0  0  0  0
    2.6650    1.0260   -1.1770 C   0  0  0  0  0  0  0  0  0  0  0  0
    3.8320    0.8910   -0.4250 C   0  0  0  0  0  0  0  0  0  0  0  0
    4.0060   -0.2050    0.4340 C   0  0  0  0  0  0  0  0  0  0  0  0
    5.2800   -0.3370    1.2380 C   0  0  0  0  0  0  0  0  0  0  0  0
    3.0090   -1.1760    0.5350 C   0  0  0  0  0  0  0  0  0  0  0  0
    1.8470   -1.0330   -0.2220 C   0  0  0  0  0  0  0  0  0  0  0  0
    0.6690   -1.8620   -0.3330 C   0  0  0  0  0  0  0  0  0  0  0  0
    0.4430   -2.9460    0.1780 O   0  0  0  0  0  0  0  0  0  0  0  0
  1  2  1  0  0  0  0
  2  3  1  0  0  0  0
  3  4  2  0  0  0  0
  3  5  1  0  0  0  0
  5  6  1  0  0  0  0
  5 10  1  0  0  0  0
  6  7  1  0  0  0  0
  7  8  1  0  0  0  0
  8  9  1  0  0  0  0
  9 10  1  0  0  0  0
 10 11  1  0  0  0  0
 11 12  2  0  0  0  0
 11 13  1  0  0  0  0
 13 14  1  0  0  0  0
 13 15  1  0  0  0  0
 15 16  1  0  0  0  0
 15 25  1  0  0  0  0
 16 17  2  0  0  0  0
 16 18  1  0  0  0  0
 18 19  1  0  0  0  0
 18 24  2  0  0  0  0
 19 20  2  0  0  0  0
 20 21  1  0  0  0  0
 21 22  1  0  0  0  0
 21 23  2  0  0  0  0
 23 24  1  0  0  0  0
 24 25  1  0  0  0  0
 25 26  2  0  0  0  0
M  END
>  <NScode>
NS-025071873-0000

>  <a_acc>
4

>  <a_don>
1

>  <chiral>
2

>  <opr_nrot>
5

>  <Weight>
357.41

>  <druglike>
1

>  <lip_druglike>
1

>  <lip_violation>
0

>  <logS>
-3.7291601

$$$$
