NS-050160026-0001
  MOE2022           3D

 25 27  0  0  1  0  0  0  0  0999 V2000
    1.4790   -4.4840    1.1850 C   0  0  0  0  0  0  0  0  0  0  0  0
    0.5170   -4.2570    0.0110 C   0  0  2  0  0  0  0  0  0  0  0  0
    0.9670   -4.9950   -1.2560 C   0  0  0  0  0  0  0  0  0  0  0  0
    1.7650   -3.9680   -2.0540 C   0  0  2  0  0  0  0  0  0  0  0  0
    3.0830   -4.0810   -1.7350 F   0  0  0  0  0  0  0  0  0  0  0  0
    1.2450   -2.6060   -1.5870 C   0  0  0  0  0  0  0  0  0  0  0  0
    0.4680   -2.8400   -0.3550 N   0  0  0  0  0  0  0  0  0  0  0  0
   -0.2100   -1.9220    0.3680 C   0  0  0  0  0  0  0  0  0  0  0  0
   -0.8830   -2.2910    1.3290 O   0  0  0  0  0  0  0  0  0  0  0  0
   -0.1400   -0.4450   -0.0090 C   0  0  3  0  0  0  0  0  0  0  0  0
   -1.5090    0.2250    0.1690 C   0  0  0  0  0  0  0  0  0  0  0  0
   -1.4730    1.6390   -0.2560 N   0  0  0  0  0  0  0  0  0  0  0  0
   -2.8300    2.2040   -0.2720 C   0  0  0  0  0  0  0  0  0  0  0  0
   -2.8950    3.4930   -1.1000 C   0  0  0  0  0  0  0  0  0  0  0  0
   -4.3120    4.0460   -1.2300 C   0  0  0  0  0  0  0  0  0  0  0  0
   -4.8460    4.3430   -0.0350 F   0  0  0  0  0  0  0  0  0  0  0  0
   -4.3400    5.1720   -1.9540 F   0  0  0  0  0  0  0  0  0  0  0  0
   -5.1460    3.1820   -1.8250 F   0  0  0  0  0  0  0  0  0  0  0  0
   -0.5770    2.3950    0.6630 C   0  0  0  0  0  0  0  0  0  0  0  0
    0.7420    1.7040    0.9850 C   0  0  0  0  0  0  0  0  0  0  0  0
    1.7490    2.4450    1.6050 C   0  0  0  0  0  0  0  0  0  0  0  0
    2.9570    1.8470    1.9470 C   0  0  0  0  0  0  0  0  0  0  0  0
    3.1650    0.5010    1.6750 C   0  0  0  0  0  0  0  0  0  0  0  0
    2.1680   -0.2460    1.0570 C   0  0  0  0  0  0  0  0  0  0  0  0
    0.9520    0.3470    0.7070 C   0  0  0  0  0  0  0  0  0  0  0  0
  1  2  1  0  0  0  0
  2  3  1  0  0  0  0
  2  7  1  0  0  0  0
  3  4  1  0  0  0  0
  4  5  1  0  0  0  0
  4  6  1  0  0  0  0
  6  7  1  0  0  0  0
  7  8  1  0  0  0  0
  8  9  2  0  0  0  0
  8 10  1  0  0  0  0
 10 11  1  0  0  0  0
 10 25  1  0  0  0  0
 11 12  1  0  0  0  0
 12 13  1  0  0  0  0
 12 19  1  0  0  0  0
 13 14  1  0  0  0  0
 14 15  1  0  0  0  0
 15 16  1  0  0  0  0
 15 17  1  0  0  0  0
 15 18  1  0  0  0  0
 19 20  1  0  0  0  0
 20 21  1  0  0  0  0
 20 25  2  0  0  0  0
 21 22  2  0  0  0  0
 22 23  1  0  0  0  0
 23 24  2  0  0  0  0
 24 25  1  0  0  0  0
M  END
>  <NScode>
NS-050160026-0001

>  <a_acc>
2

>  <a_don>
0

>  <chiral>
3

>  <opr_nrot>
5

>  <Weight>
358.379

>  <druglike>
1

>  <lip_druglike>
1

>  <lip_violation>
0

>  <logS>
-3.6676099

$$$$
