NS-020033344-0000
  MOE2022           3D

 23 24  0  0  0  0  0  0  0  0999 V2000
   -2.7130   -1.8990   -0.2830 S   0  0  0  0  0  0  0  0  0  0  0  0
   -1.1800   -1.4980    0.1550 N   0  0  0  0  0  0  0  0  0  0  0  0
   -1.3980    0.8030    1.1860 C   0  0  0  0  0  0  0  0  0  0  0  0
   -2.3150    1.4630    1.8020 N   0  0  0  0  0  0  0  0  0  0  0  0
   -0.7410    1.5440    0.2730 O   0  0  0  0  0  0  0  0  0  0  0  0
   -1.2850    2.7490    0.3290 C   0  0  0  0  0  0  0  0  0  0  0  0
   -1.0230   -0.6580    1.3710 C   0  0  0  0  0  0  0  0  0  0  0  0
   -2.2460    2.7110    1.2670 C   0  0  0  0  0  0  0  0  0  0  0  0
   -2.6570   -2.7500   -1.4170 O   0  0  0  0  0  0  0  0  0  0  0  0
   -3.3860   -2.4050    0.8590 O   0  0  0  0  0  0  0  0  0  0  0  0
   -0.1960   -2.5820    0.0880 C   0  0  0  0  0  0  0  0  0  0  0  0
   -0.7800    3.8670   -0.5590 C   0  0  0  0  0  0  0  0  0  0  0  0
   -3.4960   -0.3890   -0.7800 C   0  0  0  0  0  0  0  0  0  0  0  0
    1.2440   -2.1070    0.1830 C   0  0  0  0  0  0  0  0  0  0  0  0
    3.8760   -1.2140    0.3700 C   0  0  0  0  0  0  0  0  0  0  0  0
    2.1210   -2.6870    1.1030 C   0  0  0  0  0  0  0  0  0  0  0  0
    1.7000   -1.0800   -0.6470 C   0  0  0  0  0  0  0  0  0  0  0  0
    3.4360   -2.2410    1.1980 C   0  0  0  0  0  0  0  0  0  0  0  0
    3.0140   -0.6290   -0.5580 C   0  0  0  0  0  0  0  0  0  0  0  0
    5.1850   -0.8090    0.5120 O   0  0  0  0  0  0  0  0  0  0  0  0
    0.4690    4.5140    0.0480 C   0  0  0  0  0  0  0  0  0  0  0  0
   -1.8570    4.9300   -0.8120 C   0  0  0  0  0  0  0  0  0  0  0  0
    5.8110    0.2450   -0.2540 C   0  0  0  0  0  0  0  0  0  0  0  0
  1  2  1  0  0  0  0
  1  9  2  0  0  0  0
  1 10  2  0  0  0  0
  1 13  1  0  0  0  0
  2  7  1  0  0  0  0
  2 11  1  0  0  0  0
  3  4  2  0  0  0  0
  3  5  1  0  0  0  0
  3  7  1  0  0  0  0
  4  8  1  0  0  0  0
  5  6  1  0  0  0  0
  6  8  2  0  0  0  0
  6 12  1  0  0  0  0
 11 14  1  0  0  0  0
 12 21  1  0  0  0  0
 12 22  1  0  0  0  0
 14 16  2  0  0  0  0
 14 17  1  0  0  0  0
 15 18  2  0  0  0  0
 15 19  1  0  0  0  0
 15 20  1  0  0  0  0
 16 18  1  0  0  0  0
 17 19  2  0  0  0  0
 20 23  1  0  0  0  0
M  END
>  <NScode>
NS-020033344-0000

>  <a_acc>
4

>  <a_don>
0

>  <chiral>
0

>  <opr_nrot>
6

>  <Weight>
338.42801

>  <druglike>
1

>  <lip_druglike>
1

>  <lip_violation>
0

>  <logS>
-2.4240401

$$$$
