NS-016975726-0000
  MOE2022           3D

 32 34  0  0  0  0  0  0  0  0999 V2000
   -2.5580    1.8360    0.1230 S   0  0  0  0  0  0  0  0  0  0  0  0
   -2.0970    3.0780   -0.7990 N   0  0  0  0  0  0  0  0  0  0  0  0
   -2.0830    0.4100   -0.8630 C   0  0  0  0  0  0  0  0  0  0  0  0
    0.9870   -1.7410   -1.3870 C   0  0  0  0  0  0  0  0  0  0  0  0
   -1.8700    4.3950   -0.6630 C   0  0  0  0  0  0  0  0  0  0  0  0
   -1.7880    1.7820    1.3350 O   0  0  0  0  0  0  0  0  0  0  0  0
   -3.9900    1.8150    0.2560 O   0  5  0  0  0  0  0  0  0  0  0  0
   -0.3780   -1.2110   -1.4970 C   0  0  0  0  0  0  0  0  0  0  0  0
   -0.7820   -0.0790   -0.7740 C   0  0  0  0  0  0  0  0  0  0  0  0
    1.7720   -1.3410   -0.3400 N   0  0  0  0  0  0  0  0  0  0  0  0
    2.4440   -5.4180    1.3710 C   0  0  0  0  0  0  0  0  0  0  0  0
    2.6890   -5.2120    2.7420 C   0  0  0  0  0  0  0  0  0  0  0  0
   -2.0160    5.1820    0.5290 C   0  0  0  0  0  0  0  0  0  0  0  0
    1.4670   -2.5430   -2.1820 O   0  0  0  0  0  0  0  0  0  0  0  0
    2.5690   -4.3490    0.4800 C   0  0  0  0  0  0  0  0  0  0  0  0
    3.0470   -3.9470    3.2000 C   0  0  0  0  0  0  0  0  0  0  0  0
    2.9370   -3.0860    0.9420 C   0  0  0  0  0  0  0  0  0  0  0  0
    3.0630   -1.9410   -0.0380 C   0  0  0  0  0  0  0  0  0  0  0  0
    3.1700   -2.8880    2.3040 C   0  0  0  0  0  0  0  0  0  0  0  0
    2.0780   -6.6730    0.8920 O   0  0  0  0  0  0  0  0  0  0  0  0
    2.6030   -6.1920    3.7250 O   0  0  0  0  0  0  0  0  0  0  0  0
   -2.5030    4.6600    1.7130 O   0  0  0  0  0  0  0  0  0  0  0  0
   -2.9970   -0.2400   -1.6930 C   0  0  0  0  0  0  0  0  0  0  0  0
   -1.4170    5.0970   -1.8090 C   0  0  0  0  0  0  0  0  0  0  0  0
   -1.3120   -1.8380   -2.3330 C   0  0  0  0  0  0  0  0  0  0  0  0
   -2.6120   -1.3570   -2.4290 C   0  0  0  0  0  0  0  0  0  0  0  0
   -1.6890    6.5260    0.5600 C   0  0  0  0  0  0  0  0  0  0  0  0
    1.7830   -6.9890   -0.4890 C   0  0  0  0  0  0  0  0  0  0  0  0
   -3.9180    4.4060    1.7930 C   0  0  0  0  0  0  0  0  0  0  0  0
    2.2830   -7.5890    3.5510 C   0  0  0  0  0  0  0  0  0  0  0  0
   -1.1040    6.4480   -1.7680 C   0  0  0  0  0  0  0  0  0  0  0  0
   -1.2290    7.1740   -0.5880 C   0  0  0  0  0  0  0  0  0  0  0  0
  1  2  2  0  0  0  0
  1  3  1  0  0  0  0
  1  6  2  0  0  0  0
  1  7  1  0  0  0  0
  2  5  1  0  0  0  0
  3  9  2  0  0  0  0
  3 23  1  0  0  0  0
  4  8  1  0  0  0  0
  4 10  1  0  0  0  0
  4 14  2  0  0  0  0
  5 13  2  0  0  0  0
  5 24  1  0  0  0  0
  8  9  1  0  0  0  0
  8 25  2  0  0  0  0
 10 18  1  0  0  0  0
 11 12  2  0  0  0  0
 11 15  1  0  0  0  0
 11 20  1  0  0  0  0
 12 16  1  0  0  0  0
 12 21  1  0  0  0  0
 13 22  1  0  0  0  0
 13 27  1  0  0  0  0
 15 17  2  0  0  0  0
 16 19  2  0  0  0  0
 17 18  1  0  0  0  0
 17 19  1  0  0  0  0
 20 28  1  0  0  0  0
 21 30  1  0  0  0  0
 22 29  1  0  0  0  0
 23 26  2  0  0  0  0
 24 31  2  0  0  0  0
 25 26  1  0  0  0  0
 27 32  2  0  0  0  0
 31 32  1  0  0  0  0
M  CHG  1   7  -1
M  END
>  <NScode>
NS-016975726-0000

>  <a_acc>
6

>  <a_don>
2

>  <chiral>
0

>  <opr_nrot>
8

>  <Weight>
456.51898

>  <druglike>
1

>  <lip_druglike>
1

>  <lip_violation>
0

>  <logS>
-5.1118898

$$$$
