NS-013423236-0000
  MOE2022           3D

 28 31  0  0  0  0  0  0  0  0999 V2000
    0.7110    1.3000   -0.4950 N   0  0  0  0  0  0  0  0  0  0  0  0
    0.0910    0.3980   -1.3460 C   0  0  0  0  0  0  0  0  0  0  0  0
    0.2600   -0.8700   -0.8560 N   0  0  0  0  0  0  0  0  0  0  0  0
    1.2890    0.6400    0.5590 C   0  0  0  0  0  0  0  0  0  0  0  0
    0.5470    2.7010   -0.5700 C   0  0  0  0  0  0  0  0  0  0  0  0
    0.9860   -0.8220    0.4030 C   0  0  0  0  0  0  0  0  0  0  0  0
   -0.4680   -2.0190   -1.4710 N   0  0  0  0  0  0  0  0  0  0  0  0
   -0.4070   -3.3340   -1.1250 C   0  0  0  0  0  0  0  0  0  0  0  0
   -0.4700    3.3070    0.1850 C   0  0  0  0  0  0  0  0  0  0  0  0
   -0.5400    0.6870   -2.3610 O   0  0  0  0  0  0  0  0  0  0  0  0
    1.9360    1.1860    1.4280 O   0  0  0  0  0  0  0  0  0  0  0  0
   -1.2450   -4.0570   -1.6490 O   0  0  0  0  0  0  0  0  0  0  0  0
    0.5920   -3.8230   -0.1840 C   0  0  0  0  0  0  0  0  0  0  0  0
   -1.3550    2.5130    1.0270 C   0  0  0  0  0  0  0  0  0  0  0  0
    2.4950   -4.7000    1.6370 N   0  0  0  0  0  0  0  0  0  0  0  0
    1.3950    3.4430   -1.3900 C   0  0  0  0  0  0  0  0  0  0  0  0
   -0.6110    4.6950    0.1020 C   0  0  0  0  0  0  0  0  0  0  0  0
    1.2070   -4.6890    1.9760 C   0  0  0  0  0  0  0  0  0  0  0  0
    2.8710   -4.3140    0.4180 C   0  0  0  0  0  0  0  0  0  0  0  0
    0.2290   -4.2610    1.0890 C   0  0  0  0  0  0  0  0  0  0  0  0
    1.9460   -3.8720   -0.5180 C   0  0  0  0  0  0  0  0  0  0  0  0
   -1.0970    2.3760    2.3950 C   0  0  0  0  0  0  0  0  0  0  0  0
   -2.4520    1.8450    0.4750 C   0  0  0  0  0  0  0  0  0  0  0  0
    1.2350    4.8230   -1.4570 C   0  0  0  0  0  0  0  0  0  0  0  0
    0.2340    5.4470   -0.7110 C   0  0  0  0  0  0  0  0  0  0  0  0
   -3.2710    1.0530    1.2720 C   0  0  0  0  0  0  0  0  0  0  0  0
   -1.9170    1.5860    3.1920 C   0  0  0  0  0  0  0  0  0  0  0  0
   -3.0040    0.9220    2.6320 C   0  0  0  0  0  0  0  0  0  0  0  0
  1  2  1  0  0  0  0
  1  4  1  0  0  0  0
  1  5  1  0  0  0  0
  2  3  1  0  0  0  0
  2 10  2  0  0  0  0
  3  6  1  0  0  0  0
  3  7  1  0  0  0  0
  4  6  1  0  0  0  0
  4 11  2  0  0  0  0
  5  9  2  0  0  0  0
  5 16  1  0  0  0  0
  7  8  1  0  0  0  0
  8 12  2  0  0  0  0
  8 13  1  0  0  0  0
  9 14  1  0  0  0  0
  9 17  1  0  0  0  0
 13 20  2  0  0  0  0
 13 21  1  0  0  0  0
 14 22  1  0  0  0  0
 14 23  2  0  0  0  0
 15 18  2  0  0  0  0
 15 19  1  0  0  0  0
 16 24  2  0  0  0  0
 17 25  2  0  0  0  0
 18 20  1  0  0  0  0
 19 21  2  0  0  0  0
 22 27  2  0  0  0  0
 23 26  1  0  0  0  0
 24 25  1  0  0  0  0
 26 28  2  0  0  0  0
 27 28  1  0  0  0  0
M  END
>  <NScode>
NS-013423236-0000

>  <a_acc>
4

>  <a_don>
1

>  <chiral>
0

>  <opr_nrot>
4

>  <Weight>
372.384

>  <druglike>
1

>  <lip_druglike>
1

>  <lip_violation>
0

>  <logS>
-4.97299

$$$$
