NS-014829104-0000
  MOE2022           3D

 23 25  0  0  0  0  0  0  0  0999 V2000
    1.2180   -2.3700   -0.6770 S   0  0  0  0  0  0  0  0  0  0  0  0
    0.7250   -3.8760   -0.0210 C   0  0  0  0  0  0  0  0  0  0  0  0
   -0.1740   -1.7030    0.0340 C   0  0  0  0  0  0  0  0  0  0  0  0
   -0.3940   -3.8030    0.6630 N   0  0  0  0  0  0  0  0  0  0  0  0
   -0.3710   -0.3240   -0.1340 N   0  0  0  0  0  0  0  0  0  0  0  0
   -0.9200   -2.5390    0.6980 N   0  0  0  0  0  0  0  0  0  0  0  0
   -1.5200    0.3900    0.1190 C   0  0  0  0  0  0  0  0  0  0  0  0
    1.5050   -5.0810   -0.2260 C   0  0  0  0  0  0  0  0  0  0  0  0
   -1.4490    1.8500    0.0310 C   0  0  0  0  0  0  0  0  0  0  0  0
    2.6690   -5.0690   -0.9600 O   0  0  0  0  0  0  0  0  0  0  0  0
   -0.2980    6.9140    0.0200 C   0  0  0  0  0  0  0  0  0  0  0  0
    1.2950   -6.3550    0.2110 C   0  0  0  0  0  0  0  0  0  0  0  0
   -2.5560   -0.2090    0.3580 O   0  0  0  0  0  0  0  0  0  0  0  0
    3.1650   -6.3300   -0.9700 C   0  0  0  0  0  0  0  0  0  0  0  0
   -1.3640    6.0030   -0.3290 O   0  0  0  0  0  0  0  0  0  0  0  0
    2.3470   -7.1410   -0.2620 C   0  0  0  0  0  0  0  0  0  0  0  0
   -2.5690    2.5770   -0.4020 C   0  0  0  0  0  0  0  0  0  0  0  0
   -0.2780    2.5540    0.3720 C   0  0  0  0  0  0  0  0  0  0  0  0
   -1.3470    4.6380   -0.1900 C   0  0  0  0  0  0  0  0  0  0  0  0
   -0.6750    8.1790   -0.2180 F   0  0  0  0  0  0  0  0  0  0  0  0
    0.7930    6.6840   -0.7340 F   0  0  0  0  0  0  0  0  0  0  0  0
   -2.5180    3.9610   -0.5170 C   0  0  0  0  0  0  0  0  0  0  0  0
   -0.2230    3.9390    0.2600 C   0  0  0  0  0  0  0  0  0  0  0  0
  1  2  1  0  0  0  0
  1  3  1  0  0  0  0
  2  4  2  0  0  0  0
  2  8  1  0  0  0  0
  3  5  1  0  0  0  0
  3  6  2  0  0  0  0
  4  6  1  0  0  0  0
  5  7  1  0  0  0  0
  7  9  1  0  0  0  0
  7 13  2  0  0  0  0
  8 10  1  0  0  0  0
  8 12  2  0  0  0  0
  9 17  2  0  0  0  0
  9 18  1  0  0  0  0
 10 14  1  0  0  0  0
 11 15  1  0  0  0  0
 11 20  1  0  0  0  0
 11 21  1  0  0  0  0
 12 16  1  0  0  0  0
 14 16  2  0  0  0  0
 15 19  1  0  0  0  0
 17 22  1  0  0  0  0
 18 23  2  0  0  0  0
 19 22  2  0  0  0  0
 19 23  1  0  0  0  0
M  END
>  <NScode>
NS-014829104-0000

>  <a_acc>
4

>  <a_don>
1

>  <chiral>
0

>  <opr_nrot>
5

>  <Weight>
337.306

>  <druglike>
1

>  <lip_druglike>
1

>  <lip_violation>
0

>  <logS>
-5.6804399

$$$$
