NS-015314291-0000
  MOE2022           3D

 27 30  0  0  0  0  0  0  0  0999 V2000
   -3.4420   -1.3810    0.1220 C   0  0  0  0  0  0  0  0  0  0  0  0
   -1.0690   -1.7520    0.0700 N   0  0  0  0  0  0  0  0  0  0  0  0
   -2.1160   -0.8360    0.1360 C   0  0  0  0  0  0  0  0  0  0  0  0
   -3.5660   -2.7500    0.0840 C   0  0  0  0  0  0  0  0  0  0  0  0
   -4.7060   -0.7210    0.1280 C   0  0  0  0  0  0  0  0  0  0  0  0
   -2.4880   -3.6200    0.0690 N   0  0  0  0  0  0  0  0  0  0  0  0
   -1.2960   -3.1260    0.0610 C   0  0  0  0  0  0  0  0  0  0  0  0
   -5.2120   -3.2600    0.0510 S   0  0  0  0  0  0  0  0  0  0  0  0
   -5.7440   -1.6170    0.0870 C   0  0  0  0  0  0  0  0  0  0  0  0
    4.0710    1.3060    1.8330 N   0  0  0  0  0  0  0  0  0  0  0  0
    4.8220    1.0990   -0.2370 C   0  0  0  0  0  0  0  0  0  0  0  0
    0.3120   -1.2030    0.0520 N   0  0  0  0  0  0  0  0  0  0  0  0
    3.9040    0.6860    0.7200 C   0  0  0  0  0  0  0  0  0  0  0  0
    1.3420   -1.6880   -0.6950 C   0  0  0  0  0  0  0  0  0  0  0  0
    5.1070    2.1460    1.6340 O   0  0  0  0  0  0  0  0  0  0  0  0
    5.5690    2.0280    0.3780 C   0  0  0  0  0  0  0  0  0  0  0  0
   -1.8020    0.3650    0.2190 O   0  0  0  0  0  0  0  0  0  0  0  0
   -4.9230    0.7200    0.1630 C   0  0  0  0  0  0  0  0  0  0  0  0
    1.2110   -2.7160   -1.3350 O   0  0  0  0  0  0  0  0  0  0  0  0
    2.9070   -0.2510    0.5700 O   0  0  0  0  0  0  0  0  0  0  0  0
    2.6190   -0.8760   -0.7100 C   0  0  0  0  0  0  0  0  0  0  0  0
    6.7290    2.8630   -0.1040 C   0  0  0  0  0  0  0  0  0  0  0  0
   -5.6770    1.3470   -0.8380 C   0  0  0  0  0  0  0  0  0  0  0  0
   -4.4080    1.5090    1.1980 C   0  0  0  0  0  0  0  0  0  0  0  0
   -4.6330    2.8810    1.2300 C   0  0  0  0  0  0  0  0  0  0  0  0
   -5.9040    2.7180   -0.8070 C   0  0  0  0  0  0  0  0  0  0  0  0
   -5.3810    3.4880    0.2270 C   0  0  0  0  0  0  0  0  0  0  0  0
  1  3  1  0  0  0  0
  1  4  2  0  0  0  0
  1  5  1  0  0  0  0
  2  3  1  0  0  0  0
  2  7  1  0  0  0  0
  2 12  1  0  0  0  0
  3 17  2  0  0  0  0
  4  6  1  0  0  0  0
  4  8  1  0  0  0  0
  5  9  2  0  0  0  0
  5 18  1  0  0  0  0
  6  7  2  0  0  0  0
  8  9  1  0  0  0  0
 10 13  2  0  0  0  0
 10 15  1  0  0  0  0
 11 13  1  0  0  0  0
 11 16  2  0  0  0  0
 12 14  1  0  0  0  0
 13 20  1  0  0  0  0
 14 19  2  0  0  0  0
 14 21  1  0  0  0  0
 15 16  1  0  0  0  0
 16 22  1  0  0  0  0
 18 23  1  0  0  0  0
 18 24  2  0  0  0  0
 20 21  1  0  0  0  0
 23 26  2  0  0  0  0
 24 25  1  0  0  0  0
 25 27  2  0  0  0  0
 26 27  1  0  0  0  0
M  END
>  <NScode>
NS-015314291-0000

>  <a_acc>
4

>  <a_don>
1

>  <chiral>
0

>  <opr_nrot>
5

>  <Weight>
382.39999

>  <druglike>
1

>  <lip_druglike>
1

>  <lip_violation>
0

>  <logS>
-5.7733402

$$$$
