NS-013315153-0000
  MOE2022           3D

 29 32  0  0  0  0  0  0  0  0999 V2000
   -0.0820   -3.7950   -0.1150 N   0  0  0  0  0  0  0  0  0  0  0  0
   -0.0870   -2.3340    0.0430 C   0  0  0  0  0  0  0  0  0  0  0  0
   -1.2410   -1.6560    0.0830 N   0  0  0  0  0  0  0  0  0  0  0  0
    1.1040   -4.4950   -0.2320 N   0  0  0  0  0  0  0  0  0  0  0  0
   -1.2280   -0.3210    0.2320 C   0  0  0  0  0  0  0  0  0  0  0  0
   -0.0770    0.3580    0.3360 N   0  0  0  0  0  0  0  0  0  0  0  0
    2.9400    5.9340    0.0550 N   0  3  0  0  0  0  0  0  0  0  0  0
   -1.1550   -4.6660   -0.1680 C   0  0  0  0  0  0  0  0  0  0  0  0
    1.0750   -0.2960    0.2920 C   0  0  0  0  0  0  0  0  0  0  0  0
    1.1230   -1.6670    0.1490 C   0  0  0  0  0  0  0  0  0  0  0  0
   -0.6110   -5.8930   -0.3180 C   0  0  0  0  0  0  0  0  0  0  0  0
    0.7700   -5.7420   -0.3520 C   0  0  0  0  0  0  0  0  0  0  0  0
    2.7640    4.4890    0.1330 C   0  0  0  0  0  0  0  0  0  0  0  0
    2.5470    6.5550   -0.9200 O   0  5  0  0  0  0  0  0  0  0  0  0
    3.4810    6.5420    0.9650 O   0  0  0  0  0  0  0  0  0  0  0  0
    2.2540    0.3960    0.4100 O   0  0  0  0  0  0  0  0  0  0  0  0
   -2.5030    0.4170    0.2830 C   0  0  0  0  0  0  0  0  0  0  0  0
    3.4100    3.7780    1.1540 C   0  0  0  0  0  0  0  0  0  0  0  0
    1.9510    3.8510   -0.8150 C   0  0  0  0  0  0  0  0  0  0  0  0
    2.4080    1.7630    0.2970 C   0  0  0  0  0  0  0  0  0  0  0  0
    3.2290    2.4000    1.2300 C   0  0  0  0  0  0  0  0  0  0  0  0
    1.7770    2.4740   -0.7300 C   0  0  0  0  0  0  0  0  0  0  0  0
   -2.6210   -4.2910   -0.0750 C   0  0  0  0  0  0  0  0  0  0  0  0
    1.7820   -6.8470   -0.5060 C   0  0  0  0  0  0  0  0  0  0  0  0
   -3.7270   -0.2250    0.0220 C   0  0  0  0  0  0  0  0  0  0  0  0
   -2.5350    1.7880    0.5960 C   0  0  0  0  0  0  0  0  0  0  0  0
   -3.7380    2.4840    0.6460 C   0  0  0  0  0  0  0  0  0  0  0  0
   -4.9280    0.4730    0.0730 C   0  0  0  0  0  0  0  0  0  0  0  0
   -4.9360    1.8280    0.3850 C   0  0  0  0  0  0  0  0  0  0  0  0
  1  2  1  0  0  0  0
  1  4  1  0  0  0  0
  1  8  1  0  0  0  0
  2  3  1  0  0  0  0
  2 10  2  0  0  0  0
  3  5  2  0  0  0  0
  4 12  2  0  0  0  0
  5  6  1  0  0  0  0
  5 17  1  0  0  0  0
  6  9  2  0  0  0  0
  7 13  1  0  0  0  0
  7 14  1  0  0  0  0
  7 15  2  0  0  0  0
  8 11  2  0  0  0  0
  8 23  1  0  0  0  0
  9 10  1  0  0  0  0
  9 16  1  0  0  0  0
 11 12  1  0  0  0  0
 12 24  1  0  0  0  0
 13 18  2  0  0  0  0
 13 19  1  0  0  0  0
 16 20  1  0  0  0  0
 17 25  1  0  0  0  0
 17 26  2  0  0  0  0
 18 21  1  0  0  0  0
 19 22  2  0  0  0  0
 20 21  2  0  0  0  0
 20 22  1  0  0  0  0
 25 28  2  0  0  0  0
 26 27  1  0  0  0  0
 27 29  2  0  0  0  0
 28 29  1  0  0  0  0
M  CHG  1   7   1
M  CHG  1  14  -1
M  END
>  <NScode>
NS-013315153-0000

>  <a_acc>
3

>  <a_don>
0

>  <chiral>
0

>  <opr_nrot>
5

>  <Weight>
387.39899

>  <druglike>
1

>  <lip_druglike>
1

>  <lip_violation>
0

>  <logS>
-6.9495502

$$$$
