NS-006762143-0000
  MOE2022           3D

 11 12  0  0  0  0  0  0  0  0999 V2000
    1.3520    1.2370   -0.1000 C   0  0  0  0  0  0  0  0  0  0  0  0
    2.5280    0.4830   -0.0550 C   0  0  0  0  0  0  0  0  0  0  0  0
    0.0520    0.7330   -0.1680 N   0  0  0  0  0  0  0  0  0  0  0  0
    3.7390    1.1880    0.0330 C   0  0  0  0  0  0  0  0  0  0  0  0
    1.3640    2.6210   -0.0620 C   0  0  0  0  0  0  0  0  0  0  0  0
    3.7580    2.5900    0.0610 C   0  0  0  0  0  0  0  0  0  0  0  0
    2.5650    3.3100    0.0130 C   0  0  0  0  0  0  0  0  0  0  0  0
    5.2590    0.3480    0.1150 Cl  0  0  0  0  0  0  0  0  0  0  0  0
   -0.8660    1.8680    0.0420 C   0  0  0  0  0  0  0  0  0  0  0  0
    2.5010   -1.0360   -0.0990 C   0  0  0  0  0  0  0  0  0  0  0  0
   -0.0350    3.1500   -0.0920 C   0  0  0  0  0  0  0  0  0  0  0  0
  1  2  2  0  0  0  0
  1  3  1  0  0  0  0
  1  5  1  0  0  0  0
  2  4  1  0  0  0  0
  2 10  1  0  0  0  0
  3  9  1  0  0  0  0
  4  6  2  0  0  0  0
  4  8  1  0  0  0  0
  5  7  2  0  0  0  0
  5 11  1  0  0  0  0
  6  7  1  0  0  0  0
  9 11  1  0  0  0  0
M  END
>  <NScode>
NS-006762143-0000

>  <a_acc>
0

>  <a_don>
1

>  <chiral>
0

>  <opr_nrot>
0

>  <Weight>
167.63899

>  <druglike>
0

>  <lip_druglike>
1

>  <lip_violation>
0

>  <logS>
-2.2599699

$$$$
