NS-022400101-0000
  MOE2022           3D

  9 10  0  0  0  0  0  0  0  0999 V2000
    0.1980   -1.8990   -0.6170 C   0  0  0  0  0  0  0  0  0  0  0  0
    0.4970   -0.4730   -0.1380 C   0  0  0  0  0  0  0  0  0  0  0  0
   -0.5390    0.2990    0.7330 C   0  0  0  0  0  0  0  0  0  0  0  0
    0.3540    1.4810    0.2590 C   0  0  0  0  0  0  0  0  0  0  0  0
   -0.0960    2.9470    0.3960 C   0  0  0  0  0  0  0  0  0  0  0  0
   -1.4730    3.3090   -0.1610 N   0  3  0  0  0  0  0  0  0  0  0  0
    0.3270    0.7360   -1.1060 C   0  0  0  0  0  0  0  0  0  0  0  0
    1.8390   -0.2050    0.5580 C   0  0  0  0  0  0  0  0  0  0  0  0
    1.6500    1.2120    0.8060 O   0  0  0  0  0  0  0  0  0  0  0  0
  1  2  1  0  0  0  0
  2  3  1  0  0  0  0
  2  7  1  0  0  0  0
  2  8  1  0  0  0  0
  3  4  1  0  0  0  0
  4  5  1  0  0  0  0
  4  7  1  0  0  0  0
  4  9  1  0  0  0  0
  5  6  1  0  0  0  0
  8  9  1  0  0  0  0
M  CHG  1   6   1
M  END
>  <NScode>
NS-022400101-0000

>  <a_acc>
2

>  <a_don>
1

>  <chiral>
0

>  <opr_nrot>
1

>  <Weight>
127.187

>  <druglike>
0

>  <lip_druglike>
1

>  <lip_violation>
0

>  <logS>
-0.40386

$$$$
