NS-016180077-0000
  MOE2022           3D

 26 29  0  0  0  0  0  0  0  0999 V2000
   -0.6730    0.1330   -0.7860 S   0  0  0  0  0  0  0  0  0  0  0  0
   -0.7290    1.7670   -0.5310 N   0  0  0  0  0  0  0  0  0  0  0  0
   -1.5800   -0.5840    0.5890 C   0  0  0  0  0  0  0  0  0  0  0  0
   -1.0210    4.7300   -0.7480 N   0  0  0  0  0  0  0  0  0  0  0  0
   -1.8800    6.5820    0.4490 N   0  0  0  0  0  0  0  0  0  0  0  0
   -1.9300    7.8800    0.7240 N   0  0  0  0  0  0  0  0  0  0  0  0
   -1.0430    6.1090   -0.5030 C   0  0  0  0  0  0  0  0  0  0  0  0
   -0.8080   -0.9170    2.1060 S   0  0  0  0  0  0  0  0  0  0  0  0
    0.6830   -0.2910   -0.7220 O   0  0  0  0  0  0  0  0  0  0  0  0
   -1.3740   -0.1550   -1.9900 O   0  0  0  0  0  0  0  0  0  0  0  0
   -2.0540    2.4210   -0.5150 C   0  0  0  0  0  0  0  0  0  0  0  0
    0.2300    2.5920   -1.2900 C   0  0  0  0  0  0  0  0  0  0  0  0
   -1.1560    8.7770    0.0690 C   0  0  0  0  0  0  0  0  0  0  0  0
   -2.8950   -0.9710    0.6150 C   0  0  0  0  0  0  0  0  0  0  0  0
    0.3020    4.0600   -0.8080 C   0  0  0  0  0  0  0  0  0  0  0  0
   -2.0100    3.8870   -0.0250 C   0  0  0  0  0  0  0  0  0  0  0  0
   -1.2650   10.1890    0.4280 C   0  0  0  0  0  0  0  0  0  0  0  0
   -2.2740   -1.5540    2.7580 C   0  0  0  0  0  0  0  0  0  0  0  0
   -0.2320    6.9790   -1.2280 C   0  0  0  0  0  0  0  0  0  0  0  0
   -2.6460   12.0090    1.1600 N   0  0  0  0  0  0  0  0  0  0  0  0
   -3.2900   -1.5160    1.8490 C   0  0  0  0  0  0  0  0  0  0  0  0
   -0.2920    8.3310   -0.9340 C   0  0  0  0  0  0  0  0  0  0  0  0
   -2.4940   10.7240    0.8400 C   0  0  0  0  0  0  0  0  0  0  0  0
   -0.1640   11.0510    0.3750 C   0  0  0  0  0  0  0  0  0  0  0  0
   -1.6020   12.8320    1.1020 C   0  0  0  0  0  0  0  0  0  0  0  0
   -0.3440   12.3830    0.7140 C   0  0  0  0  0  0  0  0  0  0  0  0
  1  2  1  0  0  0  0
  1  3  1  0  0  0  0
  1  9  2  0  0  0  0
  1 10  2  0  0  0  0
  2 11  1  0  0  0  0
  2 12  1  0  0  0  0
  3  8  1  0  0  0  0
  3 14  2  0  0  0  0
  4  7  1  0  0  0  0
  4 15  1  0  0  0  0
  4 16  1  0  0  0  0
  5  6  2  0  0  0  0
  5  7  1  0  0  0  0
  6 13  1  0  0  0  0
  7 19  2  0  0  0  0
  8 18  1  0  0  0  0
 11 16  1  0  0  0  0
 12 15  1  0  0  0  0
 13 17  1  0  0  0  0
 13 22  2  0  0  0  0
 14 21  1  0  0  0  0
 17 23  2  0  0  0  0
 17 24  1  0  0  0  0
 18 21  2  0  0  0  0
 19 22  1  0  0  0  0
 20 23  1  0  0  0  0
 20 25  2  0  0  0  0
 24 26  2  0  0  0  0
 25 26  1  0  0  0  0
M  END
>  <NScode>
NS-016180077-0000

>  <a_acc>
5

>  <a_don>
0

>  <chiral>
0

>  <opr_nrot>
5

>  <Weight>
387.48801

>  <druglike>
1

>  <lip_druglike>
1

>  <lip_violation>
0

>  <logS>
-3.3170199

$$$$
