NS-016901793-0000
  MOE2022           3D

 29 31  0  0  1  0  0  0  0  0999 V2000
    0.0490   -2.3010   -2.9540 S   0  0  0  0  0  0  0  0  0  0  0  0
    0.3210   -3.3140   -1.6710 N   0  0  0  0  0  0  0  0  0  0  0  0
   -0.6590    3.6340    0.6310 C   0  0  0  0  0  0  0  0  0  0  0  0
    1.7920   -4.0720    0.2600 C   0  0  3  0  0  0  0  0  0  0  0  0
    0.5040    5.7630    0.3360 N   0  0  0  0  0  0  0  0  0  0  0  0
    1.6840   -3.3670   -1.1040 C   0  0  0  0  0  0  0  0  0  0  0  0
    3.2530   -4.4030    0.5490 C   0  0  0  0  0  0  0  0  0  0  0  0
    0.0350   -0.6550   -2.2190 C   0  0  0  0  0  0  0  0  0  0  0  0
   -0.4140    5.0330    1.0240 C   0  0  0  0  0  0  0  0  0  0  0  0
    0.0590    3.1570   -0.4520 N   0  0  0  0  0  0  0  0  0  0  0  0
   -1.2420   -2.5670   -3.4900 O   0  0  0  0  0  0  0  0  0  0  0  0
    1.1520   -2.3870   -3.8490 O   0  0  0  0  0  0  0  0  0  0  0  0
   -1.4370    2.8830    1.2150 O   0  0  0  0  0  0  0  0  0  0  0  0
    3.9740   -3.5870    1.1180 O   0  0  0  0  0  0  0  0  0  0  0  0
   -1.1470   -0.1290   -1.6850 C   0  0  0  0  0  0  0  0  0  0  0  0
    1.1990    0.1230   -2.1820 C   0  0  0  0  0  0  0  0  0  0  0  0
    0.0140    1.8760   -1.0380 C   0  0  0  0  0  0  0  0  0  0  0  0
    0.7420    7.0250    0.6700 C   0  0  0  0  0  0  0  0  0  0  0  0
   -0.7430   -3.5120   -0.6850 C   0  0  0  0  0  0  0  0  0  0  0  0
    3.7570   -5.5730    0.1170 O   0  0  0  0  0  0  0  0  0  0  0  0
    1.1930    1.3830   -1.5930 C   0  0  0  0  0  0  0  0  0  0  0  0
   -1.1640    1.1300   -1.0950 C   0  0  0  0  0  0  0  0  0  0  0  0
    0.8510   -5.2910    0.3260 C   0  0  0  0  0  0  0  0  0  0  0  0
   -1.1140    5.6100    2.0910 C   0  0  0  0  0  0  0  0  0  0  0  0
   -0.6030   -4.8580    0.0540 C   0  0  0  0  0  0  0  0  0  0  0  0
   -0.8760    6.9280    2.4480 C   0  0  0  0  0  0  0  0  0  0  0  0
    0.0660    7.6400    1.7220 C   0  0  0  0  0  0  0  0  0  0  0  0
    1.7640    7.7820   -0.1400 C   0  0  0  0  0  0  0  0  0  0  0  0
    5.1530   -5.9130    0.3280 C   0  0  0  0  0  0  0  0  0  0  0  0
  1  2  1  0  0  0  0
  1  8  1  0  0  0  0
  1 11  2  0  0  0  0
  1 12  2  0  0  0  0
  2  6  1  0  0  0  0
  2 19  1  0  0  0  0
  3  9  1  0  0  0  0
  3 10  1  0  0  0  0
  3 13  2  0  0  0  0
  4  6  1  0  0  0  0
  4  7  1  0  0  0  0
  4 23  1  0  0  0  0
  5  9  2  0  0  0  0
  5 18  1  0  0  0  0
  7 14  2  0  0  0  0
  7 20  1  0  0  0  0
  8 15  1  0  0  0  0
  8 16  2  0  0  0  0
  9 24  1  0  0  0  0
 10 17  1  0  0  0  0
 15 22  2  0  0  0  0
 16 21  1  0  0  0  0
 17 21  2  0  0  0  0
 17 22  1  0  0  0  0
 18 27  2  0  0  0  0
 18 28  1  0  0  0  0
 19 25  1  0  0  0  0
 20 29  1  0  0  0  0
 23 25  1  0  0  0  0
 24 26  2  0  0  0  0
 26 27  1  0  0  0  0
M  END
>  <NScode>
NS-016901793-0000

>  <a_acc>
5

>  <a_don>
1

>  <chiral>
1

>  <opr_nrot>
6

>  <Weight>
417.48599

>  <druglike>
1

>  <lip_druglike>
1

>  <lip_violation>
0

>  <logS>
-3.19363

$$$$
