NS-015312250-0000
  MOE2022           3D

 24 26  0  0  0  0  0  0  0  0999 V2000
    1.5320   -1.9510   -0.1260 N   0  0  0  0  0  0  0  0  0  0  0  0
    0.3110   -2.3100    0.3640 C   0  0  0  0  0  0  0  0  0  0  0  0
    2.8230    0.1550   -0.5500 C   0  0  0  0  0  0  0  0  0  0  0  0
   -2.1150    1.1300   -0.9670 C   0  0  0  0  0  0  0  0  0  0  0  0
   -2.9820    0.6090   -0.0360 N   0  0  0  0  0  0  0  0  0  0  0  0
    1.8180   -0.8670   -1.0670 C   0  0  0  0  0  0  0  0  0  0  0  0
   -0.9070   -1.6640   -0.0230 N   0  0  0  0  0  0  0  0  0  0  0  0
    2.5190   -2.7470    0.3990 N   0  0  0  0  0  0  0  0  0  0  0  0
    0.5270   -3.3320    1.2240 C   0  0  0  0  0  0  0  0  0  0  0  0
   -2.0980   -1.6800    0.6530 C   0  0  0  0  0  0  0  0  0  0  0  0
   -1.8230    2.8190   -0.7710 S   0  0  0  0  0  0  0  0  0  0  0  0
   -3.2230   -0.8570    0.0440 C   0  0  0  0  0  0  0  0  0  0  0  0
    1.8970   -3.5650    1.2100 C   0  0  0  0  0  0  0  0  0  0  0  0
    2.4430    1.0920    0.4200 C   0  0  0  0  0  0  0  0  0  0  0  0
    4.1480    0.1690   -1.0110 C   0  0  0  0  0  0  0  0  0  0  0  0
   -1.5820    0.4070   -1.8150 O   0  0  0  0  0  0  0  0  0  0  0  0
   -2.2230   -2.2860    1.7000 O   0  0  0  0  0  0  0  0  0  0  0  0
    0.8250    1.1420    1.0480 Cl  0  0  0  0  0  0  0  0  0  0  0  0
    4.7090   -0.9500   -2.2150 Cl  0  0  0  0  0  0  0  0  0  0  0  0
   -3.1940    1.4750    1.1210 C   0  0  0  0  0  0  0  0  0  0  0  0
   -2.8530    2.9120    0.7210 C   0  0  0  0  0  0  0  0  0  0  0  0
    4.6690    2.0250    0.4430 C   0  0  0  0  0  0  0  0  0  0  0  0
    3.3610    2.0230    0.9130 C   0  0  0  0  0  0  0  0  0  0  0  0
    5.0640    1.1010   -0.5160 C   0  0  0  0  0  0  0  0  0  0  0  0
  1  2  1  0  0  0  0
  1  6  1  0  0  0  0
  1  8  1  0  0  0  0
  2  7  1  0  0  0  0
  2  9  2  0  0  0  0
  3  6  1  0  0  0  0
  3 14  2  0  0  0  0
  3 15  1  0  0  0  0
  4  5  1  0  0  0  0
  4 11  1  0  0  0  0
  4 16  2  0  0  0  0
  5 12  1  0  0  0  0
  5 20  1  0  0  0  0
  7 10  1  0  0  0  0
  8 13  2  0  0  0  0
  9 13  1  0  0  0  0
 10 12  1  0  0  0  0
 10 17  2  0  0  0  0
 11 21  1  0  0  0  0
 14 18  1  0  0  0  0
 14 23  1  0  0  0  0
 15 19  1  0  0  0  0
 15 24  2  0  0  0  0
 20 21  1  0  0  0  0
 22 23  2  0  0  0  0
 22 24  1  0  0  0  0
M  END
>  <NScode>
NS-015312250-0000

>  <a_acc>
3

>  <a_don>
1

>  <chiral>
0

>  <opr_nrot>
5

>  <Weight>
385.27499

>  <druglike>
1

>  <lip_druglike>
1

>  <lip_violation>
0

>  <logS>
-4.7280202

$$$$
