NS-021565972-0000
  MOE2022           3D

 25 28  0  0  1  0  0  0  0  0999 V2000
    5.6470    0.2030    1.3460 C   0  0  0  0  0  0  0  0  0  0  0  0
    6.8230    0.8760    1.3880 N   0  0  0  0  0  0  0  0  0  0  0  0
    4.5790    0.7260    0.7390 N   0  0  0  0  0  0  0  0  0  0  0  0
    7.3820    1.7050    0.4680 C   0  0  0  0  0  0  0  0  0  0  0  0
    2.7720    2.8870   -0.8450 N   0  3  3  0  0  0  0  0  0  0  0  0
    3.4480    0.0420    0.7520 C   0  0  0  0  0  0  0  0  0  0  0  0
    2.2320    0.6430    0.0680 C   0  0  3  0  0  0  0  0  0  0  0  0
    5.6550   -0.9540    1.9970 N   0  0  0  0  0  0  0  0  0  0  0  0
    2.6430    1.4180   -1.1930 C   0  0  0  0  0  0  0  0  0  0  0  0
    6.8790    1.8450   -0.7670 N   0  0  0  0  0  0  0  0  0  0  0  0
    8.4710    2.3210    0.9170 N   0  0  0  0  0  0  0  0  0  0  0  0
    1.5610    1.7130    0.9390 C   0  0  0  0  0  0  0  0  0  0  0  0
    4.1930    3.3800   -0.9510 C   0  0  0  0  0  0  0  0  0  0  0  0
    2.2410    3.0270    0.5570 C   0  0  0  0  0  0  0  0  0  0  0  0
    3.3950   -1.1820    1.4050 C   0  0  0  0  0  0  0  0  0  0  0  0
    4.5380   -1.6580    2.0290 C   0  0  0  0  0  0  0  0  0  0  0  0
    4.3450    4.8630   -0.7280 C   0  0  0  0  0  0  0  0  0  0  0  0
    8.6700    3.3040   -1.2020 C   0  0  0  0  0  0  0  0  0  0  0  0
    7.5280    2.6350   -1.6090 C   0  0  0  0  0  0  0  0  0  0  0  0
    9.1220    3.1240    0.0950 C   0  0  0  0  0  0  0  0  0  0  0  0
    5.0010    5.3260    0.4130 C   0  0  0  0  0  0  0  0  0  0  0  0
    3.8300    5.7800   -1.6450 C   0  0  0  0  0  0  0  0  0  0  0  0
    5.1330    6.6920    0.6390 C   0  0  0  0  0  0  0  0  0  0  0  0
    3.9630    7.1470   -1.4170 C   0  0  0  0  0  0  0  0  0  0  0  0
    4.6120    7.6030   -0.2750 C   0  0  0  0  0  0  0  0  0  0  0  0
  1  2  1  0  0  0  0
  1  3  2  0  0  0  0
  1  8  1  0  0  0  0
  2  4  1  0  0  0  0
  3  6  1  0  0  0  0
  4 10  2  0  0  0  0
  4 11  1  0  0  0  0
  5  9  1  0  0  0  0
  5 13  1  0  0  0  0
  5 14  1  0  0  0  0
  6  7  1  0  0  0  0
  6 15  2  0  0  0  0
  7  9  1  0  0  0  0
  7 12  1  0  0  0  0
  8 16  2  0  0  0  0
 10 19  1  0  0  0  0
 11 20  2  0  0  0  0
 12 14  1  0  0  0  0
 13 17  1  0  0  0  0
 15 16  1  0  0  0  0
 17 21  2  0  0  0  0
 17 22  1  0  0  0  0
 18 19  2  0  0  0  0
 18 20  1  0  0  0  0
 21 23  1  0  0  0  0
 22 24  2  0  0  0  0
 23 25  2  0  0  0  0
 24 25  1  0  0  0  0
M  CHG  1   5   1
M  END
>  <NScode>
NS-021565972-0000

>  <a_acc>
5

>  <a_don>
1

>  <chiral>
1

>  <opr_nrot>
6

>  <Weight>
332.41098

>  <druglike>
1

>  <lip_druglike>
1

>  <lip_violation>
0

>  <logS>
-4.0933099

$$$$
