NS-015263181-0000
  MOE2022           3D

 23 25  0  0  0  0  0  0  0  0999 V2000
   -2.1110    1.8700   -0.4980 C   0  0  0  0  0  0  0  0  0  0  0  0
   -3.2320    1.1030   -0.3060 N   0  0  0  0  0  0  0  0  0  0  0  0
   -4.3680    1.8730   -0.4290 N   0  0  0  0  0  0  0  0  0  0  0  0
   -2.5460    3.1310   -0.7210 C   0  0  0  0  0  0  0  0  0  0  0  0
    4.3170   -0.5000   -0.5070 S   0  0  0  0  0  0  0  0  0  0  0  0
    3.1310   -1.0110    0.6130 C   0  0  0  0  0  0  0  0  0  0  0  0
    3.4660   -2.0790    1.2840 N   0  0  0  0  0  0  0  0  0  0  0  0
    4.7120   -2.5450    0.9250 N   0  0  0  0  0  0  0  0  0  0  0  0
   -0.7870    1.3140   -0.4620 N   0  0  0  0  0  0  0  0  0  0  0  0
    5.2670   -1.8240    0.0080 C   0  0  0  0  0  0  0  0  0  0  0  0
   -3.9370    3.0810   -0.6710 C   0  0  0  0  0  0  0  0  0  0  0  0
    0.3980    2.0000   -0.5020 C   0  0  0  0  0  0  0  0  0  0  0  0
   -3.2410   -0.3080   -0.0340 C   0  0  0  0  0  0  0  0  0  0  0  0
    1.6160   -0.1570    0.8110 S   0  0  0  0  0  0  0  0  0  0  0  0
    0.4200    3.2120   -0.5600 O   0  0  0  0  0  0  0  0  0  0  0  0
    1.6590    1.1690   -0.4530 C   0  0  0  0  0  0  0  0  0  0  0  0
    6.6280   -2.0820   -0.5860 C   0  0  0  0  0  0  0  0  0  0  0  0
   -4.8680    4.2470   -0.8710 C   0  0  0  0  0  0  0  0  0  0  0  0
   -2.5090   -0.8080    1.0460 C   0  0  0  0  0  0  0  0  0  0  0  0
   -3.9710   -1.1520   -0.8710 C   0  0  0  0  0  0  0  0  0  0  0  0
   -3.9460   -2.5230   -0.6350 C   0  0  0  0  0  0  0  0  0  0  0  0
   -2.4890   -2.1810    1.2690 C   0  0  0  0  0  0  0  0  0  0  0  0
   -3.2030   -3.0360    0.4290 C   0  0  0  0  0  0  0  0  0  0  0  0
  1  2  1  0  0  0  0
  1  4  2  0  0  0  0
  1  9  1  0  0  0  0
  2  3  1  0  0  0  0
  2 13  1  0  0  0  0
  3 11  2  0  0  0  0
  4 11  1  0  0  0  0
  5  6  1  0  0  0  0
  5 10  1  0  0  0  0
  6  7  2  0  0  0  0
  6 14  1  0  0  0  0
  7  8  1  0  0  0  0
  8 10  2  0  0  0  0
  9 12  1  0  0  0  0
 10 17  1  0  0  0  0
 11 18  1  0  0  0  0
 12 15  2  0  0  0  0
 12 16  1  0  0  0  0
 13 19  1  0  0  0  0
 13 20  2  0  0  0  0
 14 16  1  0  0  0  0
 19 22  2  0  0  0  0
 20 21  1  0  0  0  0
 21 23  2  0  0  0  0
 22 23  1  0  0  0  0
M  END
>  <NScode>
NS-015263181-0000

>  <a_acc>
4

>  <a_don>
1

>  <chiral>
0

>  <opr_nrot>
5

>  <Weight>
345.45099

>  <druglike>
1

>  <lip_druglike>
1

>  <lip_violation>
0

>  <logS>
-5.1117702

$$$$
