NS-020256670-0000
  MOE2022           3D

 22 23  0  0  1  0  0  0  0  0999 V2000
   -6.6080    1.3840    0.5880 C   0  0  0  0  0  0  0  0  0  0  0  0
   -5.8520    1.4910   -0.7480 C   0  0  0  0  0  0  0  0  0  0  0  0
   -4.4070    1.6300   -0.6110 N   0  0  0  0  0  0  0  0  0  0  0  0
   -3.8260    2.8500   -0.6590 N   0  0  0  0  0  0  0  0  0  0  0  0
   -2.5600    2.6350   -0.4710 C   0  0  0  0  0  0  0  0  0  0  0  0
   -1.5860    3.7860   -0.4250 C   0  0  0  0  0  0  0  0  0  0  0  0
   -2.2900    1.2680   -0.3050 C   0  0  0  0  0  0  0  0  0  0  0  0
   -0.9880    0.6460   -0.0730 C   0  0  0  0  0  0  0  0  0  0  0  0
   -0.8770   -0.3340    0.7540 N   0  0  0  0  0  0  0  0  0  0  0  0
    0.2770   -1.0380    1.1690 N   0  0  0  0  0  0  0  0  0  0  0  0
    1.5750   -0.6040    1.3500 C   0  0  0  0  0  0  0  0  0  0  0  0
    1.9340    0.5690    1.3220 O   0  0  0  0  0  0  0  0  0  0  0  0
    2.4380   -1.6200    1.5980 N   0  0  0  0  0  0  0  0  0  0  0  0
    3.8860   -1.3920    1.6310 C   0  0  0  0  0  0  0  0  0  0  0  0
    4.5380   -1.5540    0.2520 C   0  0  3  0  0  0  0  0  0  0  0  0
    6.0540   -1.3870    0.2640 C   0  0  0  0  0  0  0  0  0  0  0  0
    6.4810   -2.1500   -0.9900 C   0  0  0  0  0  0  0  0  0  0  0  0
    5.2760   -3.0350   -1.3190 C   0  0  0  0  0  0  0  0  0  0  0  0
    4.3720   -2.8710   -0.2420 O   0  0  0  0  0  0  0  0  0  0  0  0
    0.1780    1.1540   -0.8960 C   0  0  0  0  0  0  0  0  0  0  0  0
   -3.5030    0.6450   -0.3970 C   0  0  0  0  0  0  0  0  0  0  0  0
   -3.8700   -0.8240   -0.2800 C   0  0  0  0  0  0  0  0  0  0  0  0
  1  2  1  0  0  0  0
  2  3  1  0  0  0  0
  3  4  1  0  0  0  0
  3 21  1  0  0  0  0
  4  5  2  0  0  0  0
  5  6  1  0  0  0  0
  5  7  1  0  0  0  0
  7  8  1  0  0  0  0
  7 21  2  0  0  0  0
  8  9  2  0  0  0  0
  8 20  1  0  0  0  0
  9 10  1  0  0  0  0
 10 11  1  0  0  0  0
 11 12  2  0  0  0  0
 11 13  1  0  0  0  0
 13 14  1  0  0  0  0
 14 15  1  0  0  0  0
 15 16  1  0  0  0  0
 15 19  1  0  0  0  0
 16 17  1  0  0  0  0
 17 18  1  0  0  0  0
 18 19  1  0  0  0  0
 21 22  1  0  0  0  0
M  END
>  <NScode>
NS-020256670-0000

>  <a_acc>
4

>  <a_don>
2

>  <chiral>
1

>  <opr_nrot>
6

>  <Weight>
307.39798

>  <druglike>
1

>  <lip_druglike>
1

>  <lip_violation>
0

>  <logS>
-1.89669

$$$$
