NS-027036374-0000
  MOE2022           3D

 12 12  0  0  1  0  0  0  0  0999 V2000
    0.2210   -0.7310   -0.7940 C   0  0  0  0  0  0  0  0  0  0  0  0
    1.3970    0.2420   -0.7810 C   0  0  0  0  0  0  0  0  0  0  0  0
    2.6740   -0.4470   -0.6710 O   0  0  0  0  0  0  0  0  0  0  0  0
    3.0460   -1.0030    0.6340 C   0  0  3  0  0  0  0  0  0  0  0  0
    4.3740   -0.3380    1.0520 C   0  0  0  0  0  0  0  0  0  0  0  0
    5.4960   -0.5110    0.0860 N   0  3  0  0  0  0  0  0  0  0  0  0
    3.2340   -2.5070    0.5280 C   0  0  0  0  0  0  0  0  0  0  0  0
    2.4110   -3.4070   -0.0410 C   0  0  0  0  0  0  0  0  0  0  0  0
    3.0190   -4.5830    0.1060 N   0  0  0  0  0  0  0  0  0  0  0  0
    2.5300   -5.8780   -0.3220 C   0  0  0  0  0  0  0  0  0  0  0  0
    4.1810   -4.4180    0.7490 N   0  0  0  0  0  0  0  0  0  0  0  0
    4.3210   -3.1460    1.0160 N   0  0  0  0  0  0  0  0  0  0  0  0
  1  2  1  0  0  0  0
  2  3  1  0  0  0  0
  3  4  1  0  0  0  0
  4  5  1  0  0  0  0
  4  7  1  0  0  0  0
  5  6  1  0  0  0  0
  7  8  2  0  0  0  0
  7 12  1  0  0  0  0
  8  9  1  0  0  0  0
  9 10  1  0  0  0  0
  9 11  1  0  0  0  0
 11 12  2  0  0  0  0
M  CHG  1   6   1
M  END
>  <NScode>
NS-027036374-0000

>  <a_acc>
4

>  <a_don>
1

>  <chiral>
1

>  <opr_nrot>
4

>  <Weight>
170.216

>  <druglike>
1

>  <lip_druglike>
1

>  <lip_violation>
0

>  <logS>
0.47712001

$$$$
