NS-019538129-0000
  MOE2022           3D

 31 33  0  0  0  0  0  0  0  0999 V2000
    0.6320    4.7910    0.0700 N   0  0  0  0  0  0  0  0  0  0  0  0
    1.6730    4.2470   -0.6180 N   0  0  0  0  0  0  0  0  0  0  0  0
    1.0560    5.6890    1.0000 C   0  0  0  0  0  0  0  0  0  0  0  0
   -1.6710   -1.0460    1.5180 C   0  0  0  0  0  0  0  0  0  0  0  0
    2.4020    5.6990    0.8870 C   0  0  0  0  0  0  0  0  0  0  0  0
   -0.7530   -1.9880    1.0700 N   0  0  0  0  0  0  0  0  0  0  0  0
    2.7380    4.8010   -0.1180 C   0  0  0  0  0  0  0  0  0  0  0  0
   -0.7480    4.3900   -0.2010 C   0  0  0  0  0  0  0  0  0  0  0  0
   -1.5600    0.3490    1.0930 C   0  0  0  0  0  0  0  0  0  0  0  0
   -0.9950   -3.4190    1.3170 C   0  0  0  0  0  0  0  0  0  0  0  0
   -2.5400   -1.4140    2.3000 O   0  0  0  0  0  0  0  0  0  0  0  0
   -1.2010    1.3320    2.0220 C   0  0  0  0  0  0  0  0  0  0  0  0
   -1.7530    0.7180   -0.2430 C   0  0  0  0  0  0  0  0  0  0  0  0
   -1.0870    2.9840    0.2630 C   0  0  0  0  0  0  0  0  0  0  0  0
   -1.6170   -4.1110    0.1210 C   0  0  0  0  0  0  0  0  0  0  0  0
   -1.5060    2.0220   -0.6560 C   0  0  0  0  0  0  0  0  0  0  0  0
   -0.9570    2.6360    1.6080 C   0  0  0  0  0  0  0  0  0  0  0  0
    0.1550    6.4780    1.9280 C   0  0  0  0  0  0  0  0  0  0  0  0
    0.3080   -1.6780    0.0770 C   0  0  0  0  0  0  0  0  0  0  0  0
    4.1300    4.4720   -0.5880 C   0  0  0  0  0  0  0  0  0  0  0  0
    5.3530    1.4290   -0.9710 O   0  0  0  0  0  0  0  0  0  0  0  0
    2.3300   -0.4670   -0.4980 O   0  0  0  0  0  0  0  0  0  0  0  0
    1.4000   -0.7050    0.5470 C   0  0  0  0  0  0  0  0  0  0  0  0
    4.1400    0.8250   -1.4070 C   0  0  0  0  0  0  0  0  0  0  0  0
    3.1970    0.6300   -0.2220 C   0  0  0  0  0  0  0  0  0  0  0  0
   -0.8640   -4.9750   -0.6750 C   0  0  0  0  0  0  0  0  0  0  0  0
   -2.9520   -3.8740   -0.2000 C   0  0  0  0  0  0  0  0  0  0  0  0
    6.2800    1.6060   -2.0290 C   0  0  0  0  0  0  0  0  0  0  0  0
   -3.5310   -4.4930   -1.3040 C   0  0  0  0  0  0  0  0  0  0  0  0
   -1.4430   -5.5940   -1.7790 C   0  0  0  0  0  0  0  0  0  0  0  0
   -2.7760   -5.3540   -2.0940 C   0  0  0  0  0  0  0  0  0  0  0  0
  1  2  1  0  0  0  0
  1  3  1  0  0  0  0
  1  8  1  0  0  0  0
  2  7  2  0  0  0  0
  3  5  2  0  0  0  0
  3 18  1  0  0  0  0
  4  6  1  0  0  0  0
  4  9  1  0  0  0  0
  4 11  2  0  0  0  0
  5  7  1  0  0  0  0
  6 10  1  0  0  0  0
  6 19  1  0  0  0  0
  7 20  1  0  0  0  0
  8 14  1  0  0  0  0
  9 12  1  0  0  0  0
  9 13  2  0  0  0  0
 10 15  1  0  0  0  0
 12 17  2  0  0  0  0
 13 16  1  0  0  0  0
 14 16  2  0  0  0  0
 14 17  1  0  0  0  0
 15 26  1  0  0  0  0
 15 27  2  0  0  0  0
 19 23  1  0  0  0  0
 21 24  1  0  0  0  0
 21 28  1  0  0  0  0
 22 23  1  0  0  0  0
 22 25  1  0  0  0  0
 24 25  1  0  0  0  0
 26 30  2  0  0  0  0
 27 29  1  0  0  0  0
 29 31  2  0  0  0  0
 30 31  1  0  0  0  0
M  END
>  <NScode>
NS-019538129-0000

>  <a_acc>
4

>  <a_don>
0

>  <chiral>
0

>  <opr_nrot>
11

>  <Weight>
421.54099

>  <druglike>
0

>  <lip_druglike>
1

>  <lip_violation>
0

>  <logS>
-4.20293

$$$$
