NS-016979877-0000
  MOE2022           3D

 24 27  0  0  0  0  0  0  0  0999 V2000
    5.6040    0.0330   -0.5490 C   0  0  0  0  0  0  0  0  0  0  0  0
    4.2970   -0.2210   -0.4890 N   0  3  0  0  0  0  0  0  0  0  0  0
    5.7840    1.3290   -0.3180 N   0  0  0  0  0  0  0  0  0  0  0  0
    3.6130    0.9460   -0.2060 C   0  0  0  0  0  0  0  0  0  0  0  0
    1.3470   -0.2870    0.1210 C   0  0  0  0  0  0  0  0  0  0  0  0
    0.0440   -0.2640    0.4700 N   0  0  0  0  0  0  0  0  0  0  0  0
    2.0970    1.0260   -0.0720 C   0  0  0  0  0  0  0  0  0  0  0  0
    4.5430    1.9250   -0.1000 C   0  0  0  0  0  0  0  0  0  0  0  0
   -2.9210   -0.3930    0.5040 N   0  0  0  0  0  0  0  0  0  0  0  0
    7.0430   -0.8460   -0.8270 S   0  0  0  0  0  0  0  0  0  0  0  0
    7.1280    1.7060   -0.3550 C   0  0  0  0  0  0  0  0  0  0  0  0
    7.9280    0.6400   -0.6200 C   0  0  0  0  0  0  0  0  0  0  0  0
   -4.3080   -0.4090    0.2110 C   0  0  0  0  0  0  0  0  0  0  0  0
   -0.6860   -1.5260    0.7840 C   0  0  0  0  0  0  0  0  0  0  0  0
   -0.7900    0.9490    0.7040 C   0  0  0  0  0  0  0  0  0  0  0  0
   -2.1030   -1.5850    0.1790 C   0  0  0  0  0  0  0  0  0  0  0  0
   -2.2130    0.8460    0.1100 C   0  0  0  0  0  0  0  0  0  0  0  0
    1.9070   -1.3650   -0.0710 O   0  0  0  0  0  0  0  0  0  0  0  0
   -4.8830   -1.3900   -0.6120 C   0  0  0  0  0  0  0  0  0  0  0  0
   -5.1170    0.5850    0.7780 C   0  0  0  0  0  0  0  0  0  0  0  0
   -7.0350   -0.3620   -0.3130 C   0  0  0  0  0  0  0  0  0  0  0  0
   -6.2490   -1.3640   -0.8750 C   0  0  0  0  0  0  0  0  0  0  0  0
   -6.4820    0.6110    0.5110 C   0  0  0  0  0  0  0  0  0  0  0  0
   -8.3760   -0.3250   -0.5650 O   0  0  0  0  0  0  0  0  0  0  0  0
  1  2  2  0  0  0  0
  1  3  1  0  0  0  0
  1 10  1  0  0  0  0
  2  4  1  0  0  0  0
  3  8  1  0  0  0  0
  3 11  1  0  0  0  0
  4  7  1  0  0  0  0
  4  8  2  0  0  0  0
  5  6  1  0  0  0  0
  5  7  1  0  0  0  0
  5 18  2  0  0  0  0
  6 14  1  0  0  0  0
  6 15  1  0  0  0  0
  9 13  1  0  0  0  0
  9 16  1  0  0  0  0
  9 17  1  0  0  0  0
 10 12  1  0  0  0  0
 11 12  2  0  0  0  0
 13 19  2  0  0  0  0
 13 20  1  0  0  0  0
 14 16  1  0  0  0  0
 15 17  1  0  0  0  0
 19 22  1  0  0  0  0
 20 23  2  0  0  0  0
 21 22  2  0  0  0  0
 21 23  1  0  0  0  0
 21 24  1  0  0  0  0
M  CHG  1   2   1
M  END
>  <NScode>
NS-016979877-0000

>  <a_acc>
3

>  <a_don>
1

>  <chiral>
0

>  <opr_nrot>
5

>  <Weight>
342.423

>  <druglike>
1

>  <lip_druglike>
1

>  <lip_violation>
0

>  <logS>
-2.8618701

$$$$
