NS-018417830-0000
  MOE2022           3D

 25 28  0  0  1  0  0  0  0  0999 V2000
   -2.4530   -0.0210    0.6850 C   0  0  0  0  0  0  0  0  0  0  0  0
   -1.3320   -0.8800    0.6640 N   0  0  0  0  0  0  0  0  0  0  0  0
   -2.2950    1.3260    0.5180 N   0  0  0  0  0  0  0  0  0  0  0  0
   -1.3200   -2.2520    0.7170 C   0  0  0  0  0  0  0  0  0  0  0  0
    0.0500   -2.9010    0.6880 C   0  0  3  0  0  0  0  0  0  0  0  0
    1.1420   -1.9050    0.5910 O   0  0  0  0  0  0  0  0  0  0  0  0
   -3.6980   -0.3540    0.8590 N   0  0  0  0  0  0  0  0  0  0  0  0
    1.5020   -4.4850   -0.5230 O   0  0  0  0  0  0  0  0  0  0  0  0
    2.3990   -2.3590    0.2310 C   0  0  0  0  0  0  0  0  0  0  0  0
   -4.3780    0.8250    0.8060 C   0  0  0  0  0  0  0  0  0  0  0  0
   -3.5350    1.8630    0.6000 C   0  0  0  0  0  0  0  0  0  0  0  0
    0.1650   -3.9260   -0.4480 C   0  0  0  0  0  0  0  0  0  0  0  0
    2.5770   -3.6420   -0.3090 C   0  0  0  0  0  0  0  0  0  0  0  0
   -1.0340    2.0360    0.3040 C   0  0  0  0  0  0  0  0  0  0  0  0
   -2.3360   -2.9140    0.7650 O   0  0  0  0  0  0  0  0  0  0  0  0
   -1.1690    3.5120   -0.0160 C   0  0  0  0  0  0  0  0  0  0  0  0
    3.4920   -1.5200    0.4180 C   0  0  0  0  0  0  0  0  0  0  0  0
    3.8500   -4.0900   -0.6420 C   0  0  0  0  0  0  0  0  0  0  0  0
   -1.0950    4.4640    1.0010 C   0  0  0  0  0  0  0  0  0  0  0  0
   -1.3830    3.9280   -1.3300 C   0  0  0  0  0  0  0  0  0  0  0  0
    4.7670   -1.9690    0.0770 C   0  0  0  0  0  0  0  0  0  0  0  0
    4.9460   -3.2500   -0.4480 C   0  0  0  0  0  0  0  0  0  0  0  0
   -1.5130    5.2810   -1.6250 C   0  0  0  0  0  0  0  0  0  0  0  0
   -1.2250    5.8170    0.7050 C   0  0  0  0  0  0  0  0  0  0  0  0
   -1.4330    6.2260   -0.6080 C   0  0  0  0  0  0  0  0  0  0  0  0
  1  2  1  0  0  0  0
  1  3  1  0  0  0  0
  1  7  2  0  0  0  0
  2  4  1  0  0  0  0
  3 11  1  0  0  0  0
  3 14  1  0  0  0  0
  4  5  1  0  0  0  0
  4 15  2  0  0  0  0
  5  6  1  0  0  0  0
  5 12  1  0  0  0  0
  6  9  1  0  0  0  0
  7 10  1  0  0  0  0
  8 12  1  0  0  0  0
  8 13  1  0  0  0  0
  9 13  2  0  0  0  0
  9 17  1  0  0  0  0
 10 11  2  0  0  0  0
 13 18  1  0  0  0  0
 14 16  1  0  0  0  0
 16 19  1  0  0  0  0
 16 20  2  0  0  0  0
 17 21  2  0  0  0  0
 18 22  2  0  0  0  0
 19 24  2  0  0  0  0
 20 23  1  0  0  0  0
 21 22  1  0  0  0  0
 23 25  2  0  0  0  0
 24 25  1  0  0  0  0
M  END
>  <NScode>
NS-018417830-0000

>  <a_acc>
4

>  <a_don>
1

>  <chiral>
1

>  <opr_nrot>
5

>  <Weight>
335.36301

>  <druglike>
1

>  <lip_druglike>
1

>  <lip_violation>
0

>  <logS>
-4.4987798

$$$$
