NS-011661214-0000
  MOE2022           3D

 22 23  0  0  0  0  0  0  0  0999 V2000
   12.1570    1.3860    0.0490 C   0  0  0  0  0  0  0  0  0  0  0  0
   12.5330    2.1720   -1.2120 C   0  0  0  0  0  0  0  0  0  0  0  0
   12.4760    2.1710    1.3260 C   0  0  0  0  0  0  0  0  0  0  0  0
   12.9500    0.0770    0.0670 C   0  0  0  0  0  0  0  0  0  0  0  0
   -0.1040    2.9130    0.7650 C   0  0  0  0  0  0  0  0  0  0  0  0
    0.4190    1.9980   -0.1620 C   0  0  0  0  0  0  0  0  0  0  0  0
    1.5940    1.3990   -0.0250 N   0  0  0  0  0  0  0  0  0  0  0  0
    2.3330    1.6930    1.0430 C   0  0  0  0  0  0  0  0  0  0  0  0
    1.9030    2.6030    2.0080 C   0  0  0  0  0  0  0  0  0  0  0  0
    0.6630    3.2210    1.8750 C   0  0  0  0  0  0  0  0  0  0  0  0
   -1.4870    3.5050    0.5680 C   0  0  0  0  0  0  0  0  0  0  0  0
   -1.9980    3.3290   -0.8700 C   0  0  0  0  0  0  0  0  0  0  0  0
   -1.6890    1.9110   -1.3570 C   0  0  0  0  0  0  0  0  0  0  0  0
   -0.2600    1.6460   -1.3000 N   0  0  0  0  0  0  0  0  0  0  0  0
    7.2490    1.8440   -0.1410 C   0  0  0  0  0  0  0  0  0  0  0  0
    6.1450    1.0640    0.5720 C   0  0  0  0  0  0  0  0  0  0  0  0
    4.7960    1.7880    0.4510 C   0  0  0  0  0  0  0  0  0  0  0  0
    3.6790    1.0120    1.1630 C   0  0  0  0  0  0  0  0  0  0  0  0
    8.5400    1.1840   -0.0190 N   0  0  0  0  0  0  0  0  0  0  0  0
    9.7100    1.8550   -0.0010 C   0  0  0  0  0  0  0  0  0  0  0  0
   10.7620    1.0250    0.0180 O   0  0  0  0  0  0  0  0  0  0  0  0
    9.7830    3.0740   -0.0030 O   0  0  0  0  0  0  0  0  0  0  0  0
  1  2  1  0  0  0  0
  1  3  1  0  0  0  0
  1  4  1  0  0  0  0
  1 21  1  0  0  0  0
  5  6  1  0  0  0  0
  5 10  2  0  0  0  0
  5 11  1  0  0  0  0
  6  7  2  0  0  0  0
  6 14  1  0  0  0  0
  7  8  1  0  0  0  0
  8  9  2  0  0  0  0
  8 18  1  0  0  0  0
  9 10  1  0  0  0  0
 11 12  1  0  0  0  0
 12 13  1  0  0  0  0
 13 14  1  0  0  0  0
 15 16  1  0  0  0  0
 15 19  1  0  0  0  0
 16 17  1  0  0  0  0
 17 18  1  0  0  0  0
 19 20  1  0  0  0  0
 20 21  1  0  0  0  0
 20 22  2  0  0  0  0
M  END
>  <NScode>
NS-011661214-0000

>  <a_acc>
2

>  <a_don>
2

>  <chiral>
0

>  <opr_nrot>
7

>  <Weight>
305.422

>  <druglike>
1

>  <lip_druglike>
1

>  <lip_violation>
0

>  <logS>
-2.44261

$$$$
