NS-017886832-0000
  MOE2022           3D

 26 29  0  0  0  0  0  0  0  0999 V2000
   -3.5740    1.8900    1.5640 N   0  0  0  0  0  0  0  0  0  0  0  0
    1.8330   -1.0650   -1.3820 C   0  0  0  0  0  0  0  0  0  0  0  0
   -2.5820    2.9020    1.2270 C   0  0  0  0  0  0  0  0  0  0  0  0
    2.7990   -1.6170   -0.5100 C   0  0  0  0  0  0  0  0  0  0  0  0
    2.4220   -2.9320   -0.3020 C   0  0  0  0  0  0  0  0  0  0  0  0
    1.2770   -3.2020   -1.0080 O   0  0  0  0  0  0  0  0  0  0  0  0
   -4.4040    1.2610    0.6540 N   0  0  0  0  0  0  0  0  0  0  0  0
    0.9450   -2.0450   -1.6600 C   0  0  0  0  0  0  0  0  0  0  0  0
   -1.6970    2.7390    0.1420 C   0  0  0  0  0  0  0  0  0  0  0  0
    0.4150    0.9640   -1.9760 C   0  0  0  0  0  0  0  0  0  0  0  0
    1.7980    0.3530   -1.9200 C   0  0  0  0  0  0  0  0  0  0  0  0
   -2.5700    3.9920    2.0200 N   0  0  0  0  0  0  0  0  0  0  0  0
    3.9530   -1.1290    0.1190 C   0  0  0  0  0  0  0  0  0  0  0  0
   -3.8230    1.4370    2.8250 C   0  0  0  0  0  0  0  0  0  0  0  0
   -4.8110    0.5240    2.7120 C   0  0  0  0  0  0  0  0  0  0  0  0
   -0.2950    0.9560   -0.8470 N   0  0  0  0  0  0  0  0  0  0  0  0
   -1.6490    1.5000   -0.7380 C   0  0  0  0  0  0  0  0  0  0  0  0
    3.1410   -3.8020    0.5160 C   0  0  0  0  0  0  0  0  0  0  0  0
   -5.1380    0.4490    1.3620 C   0  0  0  0  0  0  0  0  0  0  0  0
   -0.0340    1.4490   -3.0070 O   0  0  0  0  0  0  0  0  0  0  0  0
    4.6850   -1.9810    0.9390 C   0  0  0  0  0  0  0  0  0  0  0  0
    4.2860   -3.3190    1.1410 C   0  0  0  0  0  0  0  0  0  0  0  0
   -0.8190    3.7820   -0.1340 C   0  0  0  0  0  0  0  0  0  0  0  0
   -1.7150    4.9740    1.7530 C   0  0  0  0  0  0  0  0  0  0  0  0
    5.1090   -4.2150    2.0390 C   0  0  0  0  0  0  0  0  0  0  0  0
   -0.8320    4.9060    0.6810 C   0  0  0  0  0  0  0  0  0  0  0  0
  1  3  1  0  0  0  0
  1  7  1  0  0  0  0
  1 14  1  0  0  0  0
  2  4  1  0  0  0  0
  2  8  2  0  0  0  0
  2 11  1  0  0  0  0
  3  9  2  0  0  0  0
  3 12  1  0  0  0  0
  4  5  2  0  0  0  0
  4 13  1  0  0  0  0
  5  6  1  0  0  0  0
  5 18  1  0  0  0  0
  6  8  1  0  0  0  0
  7 19  2  0  0  0  0
  9 17  1  0  0  0  0
  9 23  1  0  0  0  0
 10 11  1  0  0  0  0
 10 16  1  0  0  0  0
 10 20  2  0  0  0  0
 12 24  2  0  0  0  0
 13 21  2  0  0  0  0
 14 15  2  0  0  0  0
 15 19  1  0  0  0  0
 16 17  1  0  0  0  0
 18 22  2  0  0  0  0
 21 22  1  0  0  0  0
 22 25  1  0  0  0  0
 23 26  2  0  0  0  0
 24 26  1  0  0  0  0
M  END
>  <NScode>
NS-017886832-0000

>  <a_acc>
3

>  <a_don>
1

>  <chiral>
0

>  <opr_nrot>
5

>  <Weight>
346.38998

>  <druglike>
1

>  <lip_druglike>
1

>  <lip_violation>
0

>  <logS>
-4.48666

$$$$
