NS-019508124-0000
  MOE2022           3D

 17 18  0  0  0  0  0  0  0  0999 V2000
   -1.8930    0.4650    1.0670 N   0  0  0  0  0  0  0  0  0  0  0  0
   -3.0940    0.9800    1.5380 C   0  0  0  0  0  0  0  0  0  0  0  0
   -1.8390   -0.5890    0.2710 C   0  0  0  0  0  0  0  0  0  0  0  0
   -4.2390    0.3050    1.1150 N   0  0  0  0  0  0  0  0  0  0  0  0
   -3.0220   -1.2500   -0.1340 C   0  0  0  0  0  0  0  0  0  0  0  0
   -4.2270   -0.7860    0.3000 C   0  0  0  0  0  0  0  0  0  0  0  0
   -3.1340    2.3150    2.5360 S   0  0  0  0  0  0  0  0  0  0  0  0
    3.1530   -0.5060    0.1780 N   0  0  0  0  0  0  0  0  0  0  0  0
   -0.6320   -0.9730   -0.1150 N   0  3  0  0  0  0  0  0  0  0  0  0
    5.9480    0.1390   -0.4090 O   0  0  0  0  0  0  0  0  0  0  0  0
    0.6560   -0.3390    0.2260 C   0  0  0  0  0  0  0  0  0  0  0  0
    1.8860   -1.1480   -0.2200 C   0  0  0  0  0  0  0  0  0  0  0  0
    4.2510   -1.5120    0.2370 C   0  0  0  0  0  0  0  0  0  0  0  0
    3.5610    0.5590   -0.7840 C   0  0  0  0  0  0  0  0  0  0  0  0
   -5.5780   -1.3720   -0.0400 C   0  0  0  0  0  0  0  0  0  0  0  0
    4.9460    1.1510   -0.4470 C   0  0  0  0  0  0  0  0  0  0  0  0
    5.6210   -0.8700    0.5430 C   0  0  0  0  0  0  0  0  0  0  0  0
  1  2  1  0  0  0  0
  1  3  1  0  0  0  0
  2  4  1  0  0  0  0
  2  7  2  0  0  0  0
  3  5  1  0  0  0  0
  3  9  2  0  0  0  0
  4  6  1  0  0  0  0
  5  6  2  0  0  0  0
  6 15  1  0  0  0  0
  8 12  1  0  0  0  0
  8 13  1  0  0  0  0
  8 14  1  0  0  0  0
  9 11  1  0  0  0  0
 10 16  1  0  0  0  0
 10 17  1  0  0  0  0
 11 12  1  0  0  0  0
 13 17  1  0  0  0  0
 14 16  1  0  0  0  0
M  CHG  1   9   1
M  END
>  <NScode>
NS-019508124-0000

>  <a_acc>
4

>  <a_don>
3

>  <chiral>
0

>  <opr_nrot>
6

>  <Weight>
254.358

>  <druglike>
1

>  <lip_druglike>
1

>  <lip_violation>
0

>  <logS>
-2.21999

$$$$
