NS-015808381-0000
  MOE2022           3D

 25 27  0  0  1  0  0  0  0  0999 V2000
   -1.3930    1.1550   -1.3580 C   0  0  0  0  0  0  0  0  0  0  0  0
    0.2300    2.5640   -1.5650 N   0  0  0  0  0  0  0  0  0  0  0  0
    0.1580    1.9100   -2.7520 N   0  0  0  0  0  0  0  0  0  0  0  0
   -0.7140    2.1190   -0.6890 C   0  0  0  0  0  0  0  0  0  0  0  0
   -0.8240    1.0690   -2.6230 C   0  0  0  0  0  0  0  0  0  0  0  0
   -2.4940    0.2790   -0.8240 C   0  0  0  0  0  0  0  0  0  0  0  0
    1.2690    3.5620   -1.3080 C   0  0  0  0  0  0  0  0  0  0  0  0
   -2.0340   -1.1230   -0.5220 N   0  3  3  0  0  0  0  0  0  0  0  0
   -1.8880   -5.1280    1.7880 N   0  0  0  0  0  0  0  0  0  0  0  0
   -2.6220   -3.4460    0.2750 C   0  0  0  0  0  0  0  0  0  0  0  0
   -3.0850   -2.0280    0.0650 C   0  0  0  0  0  0  0  0  0  0  0  0
    2.3420    3.0850   -0.3450 C   0  0  0  0  0  0  0  0  0  0  0  0
   -0.8500    2.6500    0.7270 C   0  0  0  0  0  0  0  0  0  0  0  0
   -2.3400   -3.9010    1.5630 C   0  0  0  0  0  0  0  0  0  0  0  0
   -0.0690   -2.2260   -1.9690 O   0  0  0  0  0  0  0  0  0  0  0  0
   -0.6730   -1.1970    0.1590 C   0  0  0  0  0  0  0  0  0  0  0  0
   -1.7080   -5.9700    0.7710 C   0  0  0  0  0  0  0  0  0  0  0  0
   -2.4400   -4.3090   -0.8010 C   0  0  0  0  0  0  0  0  0  0  0  0
    0.3150   -2.1050   -0.5980 C   0  0  0  0  0  0  0  0  0  0  0  0
    2.5640    3.7460    0.8640 C   0  0  0  0  0  0  0  0  0  0  0  0
    3.1120    1.9670   -0.6650 C   0  0  0  0  0  0  0  0  0  0  0  0
   -1.9770   -5.5910   -0.5400 C   0  0  0  0  0  0  0  0  0  0  0  0
    3.5390    3.2870    1.7450 C   0  0  0  0  0  0  0  0  0  0  0  0
    4.0890    1.5110    0.2140 C   0  0  0  0  0  0  0  0  0  0  0  0
    4.3010    2.1700    1.4210 C   0  0  0  0  0  0  0  0  0  0  0  0
  1  4  2  0  0  0  0
  1  5  1  0  0  0  0
  1  6  1  0  0  0  0
  2  3  1  0  0  0  0
  2  4  1  0  0  0  0
  2  7  1  0  0  0  0
  3  5  2  0  0  0  0
  4 13  1  0  0  0  0
  6  8  1  0  0  0  0
  7 12  1  0  0  0  0
  8 11  1  0  0  0  0
  8 16  1  0  0  0  0
  9 14  2  0  0  0  0
  9 17  1  0  0  0  0
 10 11  1  0  0  0  0
 10 14  1  0  0  0  0
 10 18  2  0  0  0  0
 12 20  2  0  0  0  0
 12 21  1  0  0  0  0
 15 19  1  0  0  0  0
 16 19  1  0  0  0  0
 17 22  2  0  0  0  0
 18 22  1  0  0  0  0
 20 23  1  0  0  0  0
 21 24  2  0  0  0  0
 23 25  2  0  0  0  0
 24 25  1  0  0  0  0
M  CHG  1   8   1
M  END
>  <NScode>
NS-015808381-0000

>  <a_acc>
4

>  <a_don>
1

>  <chiral>
0

>  <opr_nrot>
8

>  <Weight>
336.439

>  <druglike>
1

>  <lip_druglike>
1

>  <lip_violation>
0

>  <logS>
-1.97489

$$$$
