NS-017210556-0000
  MOE2022           3D

 34 38  0  0  0  0  0  0  0  0999 V2000
    3.8720   -0.9570   -1.7140 S   0  0  0  0  0  0  0  0  0  0  0  0
   -2.9060    0.2440    0.5640 C   0  0  0  0  0  0  0  0  0  0  0  0
    3.3730    0.5920   -0.9430 C   0  0  0  0  0  0  0  0  0  0  0  0
   -2.3150   -0.9680    0.7160 C   0  0  0  0  0  0  0  0  0  0  0  0
   -0.6560    1.3220    0.5950 N   0  0  0  0  0  0  0  0  0  0  0  0
   -4.2980    0.0380    0.4230 C   0  0  0  0  0  0  0  0  0  0  0  0
   -3.2910   -1.9400    0.6600 N   0  0  0  0  0  0  0  0  0  0  0  0
    0.1870    2.3170    0.1390 C   0  0  0  0  0  0  0  0  0  0  0  0
   -2.1250    1.5460    0.5560 C   0  0  0  0  0  0  0  0  0  0  0  0
   -4.5180   -1.3340    0.4850 C   0  0  0  0  0  0  0  0  0  0  0  0
    4.9620   -1.6040   -0.6730 N   0  0  0  0  0  0  0  0  0  0  0  0
    2.0220    0.8740   -0.7430 C   0  0  0  0  0  0  0  0  0  0  0  0
    1.6070    2.0490   -0.0980 C   0  0  0  0  0  0  0  0  0  0  0  0
   -5.3920    0.8970    0.2500 C   0  0  0  0  0  0  0  0  0  0  0  0
   -6.6830    0.3660    0.1450 C   0  0  0  0  0  0  0  0  0  0  0  0
   -7.8430    1.2400   -0.0280 C   0  0  0  0  0  0  0  0  0  0  0  0
    4.5280   -0.6640   -2.9390 O   0  0  0  0  0  0  0  0  0  0  0  0
    2.7280   -1.8010   -1.7800 O   0  0  0  0  0  0  0  0  0  0  0  0
   -0.8330   -1.1790    0.8960 C   0  0  0  0  0  0  0  0  0  0  0  0
    4.5570   -1.9780    0.6590 C   0  0  0  0  0  0  0  0  0  0  0  0
    4.3210    1.5260   -0.5090 C   0  0  0  0  0  0  0  0  0  0  0  0
   -0.1960    0.1400    1.3750 C   0  0  0  0  0  0  0  0  0  0  0  0
    5.2540   -3.1440    1.2930 C   0  0  0  0  0  0  0  0  0  0  0  0
    3.8260   -3.2720    0.8520 C   0  0  0  0  0  0  0  0  0  0  0  0
   -0.3050    3.4240   -0.0490 O   0  0  0  0  0  0  0  0  0  0  0  0
   -5.7940   -1.9030    0.3800 C   0  0  0  0  0  0  0  0  0  0  0  0
    2.5770    2.9750    0.3050 C   0  0  0  0  0  0  0  0  0  0  0  0
   -8.9970    0.8450   -0.1300 O   0  0  0  0  0  0  0  0  0  0  0  0
   -6.8670   -1.0480    0.2110 C   0  0  0  0  0  0  0  0  0  0  0  0
    3.9270    2.7200    0.1040 C   0  0  0  0  0  0  0  0  0  0  0  0
   -7.6360    2.5830   -0.0780 O   0  0  0  0  0  0  0  0  0  0  0  0
    5.6530    1.2340   -0.6910 O   0  0  0  0  0  0  0  0  0  0  0  0
   -8.7320    3.5220   -0.2420 C   0  0  0  0  0  0  0  0  0  0  0  0
    6.7470    2.1670   -0.5140 C   0  0  0  0  0  0  0  0  0  0  0  0
  1  3  1  0  0  0  0
  1 11  1  0  0  0  0
  1 17  2  0  0  0  0
  1 18  2  0  0  0  0
  2  4  2  0  0  0  0
  2  6  1  0  0  0  0
  2  9  1  0  0  0  0
  3 12  2  0  0  0  0
  3 21  1  0  0  0  0
  4  7  1  0  0  0  0
  4 19  1  0  0  0  0
  5  8  1  0  0  0  0
  5  9  1  0  0  0  0
  5 22  1  0  0  0  0
  6 10  1  0  0  0  0
  6 14  2  0  0  0  0
  7 10  1  0  0  0  0
  8 13  1  0  0  0  0
  8 25  2  0  0  0  0
 10 26  2  0  0  0  0
 11 20  1  0  0  0  0
 12 13  1  0  0  0  0
 13 27  2  0  0  0  0
 14 15  1  0  0  0  0
 15 16  1  0  0  0  0
 15 29  2  0  0  0  0
 16 28  2  0  0  0  0
 16 31  1  0  0  0  0
 19 22  1  0  0  0  0
 20 23  1  0  0  0  0
 20 24  1  0  0  0  0
 21 30  2  0  0  0  0
 21 32  1  0  0  0  0
 23 24  1  0  0  0  0
 26 29  1  0  0  0  0
 27 30  1  0  0  0  0
 31 33  1  0  0  0  0
 32 34  1  0  0  0  0
M  END
>  <NScode>
NS-017210556-0000

>  <a_acc>
4

>  <a_don>
2

>  <chiral>
0

>  <opr_nrot>
5

>  <Weight>
483.54498

>  <druglike>
1

>  <lip_druglike>
1

>  <lip_violation>
0

>  <logS>
-4.6420798

$$$$
