NS-051101828-0000
  MOE2022           3D

 25 26  0  0  1  0  0  0  0  0999 V2000
   -1.9870    4.0830   -1.6850 C   0  0  0  0  0  0  0  0  0  0  0  0
   -2.0070    2.5520   -1.7910 C   0  0  0  0  0  0  0  0  0  0  0  0
   -0.7470    1.8750   -1.2040 C   0  0  3  0  0  0  0  0  0  0  0  0
   -0.6410    2.1370    0.3120 C   0  0  0  0  0  0  0  0  0  0  0  0
   -0.6750    0.3700   -1.6030 C   0  0  2  0  0  0  0  0  0  0  0  0
   -1.8570   -0.4290   -1.1670 N   0  0  0  0  0  0  0  0  0  0  0  0
   -2.1540   -0.8190    0.0950 C   0  0  0  0  0  0  0  0  0  0  0  0
   -1.3550   -0.7630    1.0240 O   0  0  0  0  0  0  0  0  0  0  0  0
   -3.4210   -1.2900    0.2620 N   0  0  0  0  0  0  0  0  0  0  0  0
   -4.3620   -1.6930   -0.7710 C   0  0  0  0  0  0  0  0  0  0  0  0
   -5.3820   -2.6180   -0.1080 C   0  0  0  0  0  0  0  0  0  0  0  0
   -5.3610   -2.1590    1.3560 C   0  0  0  0  0  0  0  0  0  0  0  0
   -3.9040   -1.7440    1.5510 C   0  0  0  0  0  0  0  0  0  0  0  0
    0.7240   -0.2570   -1.4090 C   0  0  0  0  0  0  0  0  0  0  0  0
    1.6080   -0.1320   -2.2550 O   0  0  0  0  0  0  0  0  0  0  0  0
    1.0340   -0.8760   -0.2690 N   0  0  0  0  0  0  0  0  0  0  0  0
    2.2290   -1.6850    0.0070 C   0  0  0  0  0  0  0  0  0  0  0  0
    3.4810   -0.8360    0.3710 C   0  0  3  0  0  0  0  0  0  0  0  0
    4.5950   -1.8280    0.8010 C   0  0  0  0  0  0  0  0  0  0  0  0
    5.8720   -1.1940    0.8580 O   0  0  0  0  0  0  0  0  0  0  0  0
    6.9110   -2.0620    1.2920 C   0  0  0  0  0  0  0  0  0  0  0  0
    3.2020    0.1790    1.5080 C   0  0  0  0  0  0  0  0  0  0  0  0
    3.4760    1.5620    0.8950 C   0  0  0  0  0  0  0  0  0  0  0  0
    4.4570    1.2130   -0.2090 C   0  0  0  0  0  0  0  0  0  0  0  0
    3.9160   -0.0250   -0.7830 N   0  3  0  0  0  0  0  0  0  0  0  0
  1  2  1  0  0  0  0
  2  3  1  0  0  0  0
  3  4  1  0  0  0  0
  3  5  1  0  0  0  0
  5  6  1  0  0  0  0
  5 14  1  0  0  0  0
  6  7  1  0  0  0  0
  7  8  2  0  0  0  0
  7  9  1  0  0  0  0
  9 10  1  0  0  0  0
  9 13  1  0  0  0  0
 10 11  1  0  0  0  0
 11 12  1  0  0  0  0
 12 13  1  0  0  0  0
 14 15  2  0  0  0  0
 14 16  1  0  0  0  0
 16 17  1  0  0  0  0
 17 18  1  0  0  0  0
 18 19  1  0  0  0  0
 18 22  1  0  0  0  0
 18 25  1  0  0  0  0
 19 20  1  0  0  0  0
 20 21  1  0  0  0  0
 22 23  1  0  0  0  0
 23 24  1  0  0  0  0
 24 25  1  0  0  0  0
M  CHG  1  25   1
M  END
>  <NScode>
NS-051101828-0000

>  <a_acc>
4

>  <a_don>
3

>  <chiral>
3

>  <opr_nrot>
10

>  <Weight>
354.495

>  <druglike>
1

>  <lip_druglike>
1

>  <lip_violation>
0

>  <logS>
-1.9312201

$$$$
