NS-018373313-0000
  MOE2022           3D

 24 26  0  0  0  0  0  0  0  0999 V2000
   -2.3230    1.4120    0.5090 C   0  0  0  0  0  0  0  0  0  0  0  0
   -2.4030    2.6220   -0.0390 N   0  3  0  0  0  0  0  0  0  0  0  0
   -3.4720    0.7820    0.2380 N   0  0  0  0  0  0  0  0  0  0  0  0
   -4.2860    1.6140   -0.5160 C   0  0  0  0  0  0  0  0  0  0  0  0
   -3.6110    2.7710   -0.6830 C   0  0  0  0  0  0  0  0  0  0  0  0
    1.5580    0.9230    0.3520 C   0  0  0  0  0  0  0  0  0  0  0  0
   -1.0090    0.7500    1.4000 S   0  0  0  0  0  0  0  0  0  0  0  0
    2.5890   -0.1540   -1.5680 C   0  0  0  0  0  0  0  0  0  0  0  0
    3.6030   -0.6310   -0.7490 C   0  0  0  0  0  0  0  0  0  0  0  0
    1.5640    0.6220   -1.0240 C   0  0  0  0  0  0  0  0  0  0  0  0
    3.6060   -0.3270    0.6180 C   0  0  0  0  0  0  0  0  0  0  0  0
    2.5840    0.4370    1.1670 C   0  0  0  0  0  0  0  0  0  0  0  0
    0.4630    1.7520    0.9970 C   0  0  0  0  0  0  0  0  0  0  0  0
    4.5980   -1.4110   -1.3090 O   0  0  0  0  0  0  0  0  0  0  0  0
    4.6200   -0.7710    1.4470 O   0  0  0  0  0  0  0  0  0  0  0  0
    0.2060    1.2310   -2.1980 Br  0  0  0  0  0  0  0  0  0  0  0  0
   -3.7320   -0.6090    0.6460 C   0  0  0  0  0  0  0  0  0  0  0  0
   -5.6550    1.1880   -1.0010 C   0  0  0  0  0  0  0  0  0  0  0  0
   -3.9610    4.0540   -1.4000 C   0  0  0  0  0  0  0  0  0  0  0  0
   -3.5360   -2.9820    0.0510 O   0  0  0  0  0  0  0  0  0  0  0  0
    5.4820   -2.1320   -0.4140 C   0  0  0  0  0  0  0  0  0  0  0  0
    5.8190   -1.3000    0.8250 C   0  0  0  0  0  0  0  0  0  0  0  0
   -3.2220   -1.6570   -0.3580 C   0  0  0  0  0  0  0  0  0  0  0  0
   -2.5900   -3.5670    0.9390 C   0  0  0  0  0  0  0  0  0  0  0  0
  1  2  2  0  0  0  0
  1  3  1  0  0  0  0
  1  7  1  0  0  0  0
  2  5  1  0  0  0  0
  3  4  1  0  0  0  0
  3 17  1  0  0  0  0
  4  5  2  0  0  0  0
  4 18  1  0  0  0  0
  5 19  1  0  0  0  0
  6 10  2  0  0  0  0
  6 12  1  0  0  0  0
  6 13  1  0  0  0  0
  7 13  1  0  0  0  0
  8  9  2  0  0  0  0
  8 10  1  0  0  0  0
  9 11  1  0  0  0  0
  9 14  1  0  0  0  0
 10 16  1  0  0  0  0
 11 12  2  0  0  0  0
 11 15  1  0  0  0  0
 14 21  1  0  0  0  0
 15 22  1  0  0  0  0
 17 23  1  0  0  0  0
 20 23  1  0  0  0  0
 20 24  1  0  0  0  0
 21 22  1  0  0  0  0
M  CHG  1   2   1
M  END
>  <NScode>
NS-018373313-0000

>  <a_acc>
4

>  <a_don>
0

>  <chiral>
0

>  <opr_nrot>
7

>  <Weight>
413.336

>  <druglike>
1

>  <lip_druglike>
1

>  <lip_violation>
0

>  <logS>
-5.3835602

$$$$
