NS-023512979-0000
  MOE2022           3D

 21 22  0  0  0  0  0  0  0  0999 V2000
   -0.6690    2.9310    1.1660 C   0  0  0  0  0  0  0  0  0  0  0  0
    0.7010    3.2750    0.9970 O   0  0  0  0  0  0  0  0  0  0  0  0
    0.8840    4.3400    0.0660 C   0  0  0  0  0  0  0  0  0  0  0  0
    2.3600    4.7530    0.0400 C   0  0  0  0  0  0  0  0  0  0  0  0
    3.3290    3.6410   -0.2930 C   0  0  0  0  0  0  0  0  0  0  0  0
    4.2730    3.7670   -1.1960 N   0  0  0  0  0  0  0  0  0  0  0  0
    5.1980    2.7970   -1.3110 C   0  0  0  0  0  0  0  0  0  0  0  0
    6.7160    3.2490   -1.9440 S   0  0  0  0  0  0  0  0  0  0  0  0
    7.7530    3.2220   -0.4270 C   0  0  0  0  0  0  0  0  0  0  0  0
    7.2680    4.1250    0.7280 C   0  0  0  0  0  0  0  0  0  0  0  0
    6.1270    3.5400    1.5430 C   0  0  0  0  0  0  0  0  0  0  0  0
    6.1780    2.3250    1.8200 O   0  5  0  0  0  0  0  0  0  0  0  0
    5.1360    4.2610    1.7860 O   0  0  0  0  0  0  0  0  0  0  0  0
    4.9920    1.5080   -0.7340 C   0  0  0  0  0  0  0  0  0  0  0  0
    5.7640    0.3590   -1.0180 C   0  0  0  0  0  0  0  0  0  0  0  0
    5.5150   -0.8260   -0.3460 C   0  0  0  0  0  0  0  0  0  0  0  0
    6.5480   -2.3640   -0.7220 Br  0  0  0  0  0  0  0  0  0  0  0  0
    4.4930   -0.8970    0.6240 C   0  0  0  0  0  0  0  0  0  0  0  0
    3.7190    0.2130    0.9110 C   0  0  0  0  0  0  0  0  0  0  0  0
    3.9710    1.4070    0.2140 C   0  0  0  0  0  0  0  0  0  0  0  0
    3.2010    2.5230    0.4290 N   0  3  0  0  0  0  0  0  0  0  0  0
  1  2  1  0  0  0  0
  2  3  1  0  0  0  0
  3  4  1  0  0  0  0
  4  5  1  0  0  0  0
  5  6  1  0  0  0  0
  5 21  2  0  0  0  0
  6  7  2  0  0  0  0
  7  8  1  0  0  0  0
  7 14  1  0  0  0  0
  8  9  1  0  0  0  0
  9 10  1  0  0  0  0
 10 11  1  0  0  0  0
 11 12  1  0  0  0  0
 11 13  2  0  0  0  0
 14 15  1  0  0  0  0
 14 20  2  0  0  0  0
 15 16  2  0  0  0  0
 16 17  1  0  0  0  0
 16 18  1  0  0  0  0
 18 19  2  0  0  0  0
 19 20  1  0  0  0  0
 20 21  1  0  0  0  0
M  CHG  1  12  -1
M  CHG  1  21   1
M  END
>  <NScode>
NS-023512979-0000

>  <a_acc>
4

>  <a_don>
2

>  <chiral>
0

>  <opr_nrot>
7

>  <Weight>
371.255

>  <druglike>
1

>  <lip_druglike>
1

>  <lip_violation>
0

>  <logS>
-4.4447198

$$$$
