NS-029247364-0000
  MOE2022           3D

 13 13  0  0  1  0  0  0  0  0999 V2000
    1.1120   -0.8780   -2.0170 C   0  0  0  0  0  0  0  0  0  0  0  0
    2.2700   -1.5510   -1.4500 O   0  0  0  0  0  0  0  0  0  0  0  0
    2.6850   -1.2780   -0.1970 C   0  0  0  0  0  0  0  0  0  0  0  0
    2.0810   -0.4500    0.4900 O   0  0  0  0  0  0  0  0  0  0  0  0
    3.9290   -2.0340    0.3470 C   0  0  3  0  0  0  0  0  0  0  0  0
    3.8230   -2.4630    1.7730 N   0  0  0  0  0  0  0  0  0  0  0  0
    5.2000   -1.1910    0.1510 C   0  0  0  0  0  0  0  0  0  0  0  0
    6.4940   -1.9700    0.4470 C   0  0  0  0  0  0  0  0  0  0  0  0
    7.7600   -1.1330    0.1990 C   0  0  0  0  0  0  0  0  0  0  0  0
    9.0620   -1.8890    0.5130 C   0  0  0  0  0  0  0  0  0  0  0  0
   10.3980   -1.1770    0.1550 C   0  0  0  0  0  0  0  0  0  0  0  0
   10.8970   -2.4710   -0.5380 C   0  0  0  0  0  0  0  0  0  0  0  0
    9.4640   -3.0540   -0.4380 C   0  0  0  0  0  0  0  0  0  0  0  0
  1  2  1  0  0  0  0
  2  3  1  0  0  0  0
  3  4  2  0  0  0  0
  3  5  1  0  0  0  0
  5  6  1  0  0  0  0
  5  7  1  0  0  0  0
  7  8  1  0  0  0  0
  8  9  1  0  0  0  0
  9 10  1  0  0  0  0
 10 11  1  0  0  0  0
 10 13  1  0  0  0  0
 11 12  1  0  0  0  0
 12 13  1  0  0  0  0
M  END
>  <NScode>
NS-029247364-0000

>  <a_acc>
2

>  <a_don>
1

>  <chiral>
1

>  <opr_nrot>
5

>  <Weight>
185.267

>  <druglike>
1

>  <lip_druglike>
1

>  <lip_violation>
0

>  <logS>
-2.69311

$$$$
