NS-008993915-0000
  MOE2022           3D

 13 14  0  0  0  0  0  0  0  0999 V2000
    1.1040    1.6630   -0.4240 N   0  0  0  0  0  0  0  0  0  0  0  0
    0.9930    0.4050    0.0810 C   0  0  0  0  0  0  0  0  0  0  0  0
   -0.2410    0.0000   -0.0870 N   0  0  0  0  0  0  0  0  0  0  0  0
   -0.0660    2.0740   -0.9170 N   0  0  0  0  0  0  0  0  0  0  0  0
    2.2860    2.3920   -0.3960 C   0  0  0  0  0  0  0  0  0  0  0  0
   -0.8280    1.0410   -0.6910 C   0  0  0  0  0  0  0  0  0  0  0  0
    3.3950    1.8200    0.1660 C   0  0  0  0  0  0  0  0  0  0  0  0
    2.1460   -0.1990    0.6600 C   0  0  0  0  0  0  0  0  0  0  0  0
    3.3230    0.4960    0.7030 C   0  0  0  0  0  0  0  0  0  0  0  0
    5.8880    1.8630   -0.3970 C   0  0  0  0  0  0  0  0  0  0  0  0
    4.7140    2.5740    0.2320 C   0  0  0  0  0  0  0  0  0  0  0  0
    6.1760    2.1600   -1.5760 O   0  5  0  0  0  0  0  0  0  0  0  0
    6.4950    1.0270    0.3070 O   0  0  0  0  0  0  0  0  0  0  0  0
  1  2  1  0  0  0  0
  1  4  1  0  0  0  0
  1  5  1  0  0  0  0
  2  3  2  0  0  0  0
  2  8  1  0  0  0  0
  3  6  1  0  0  0  0
  4  6  2  0  0  0  0
  5  7  2  0  0  0  0
  7  9  1  0  0  0  0
  7 11  1  0  0  0  0
  8  9  2  0  0  0  0
 10 11  1  0  0  0  0
 10 12  1  0  0  0  0
 10 13  2  0  0  0  0
M  CHG  1  12  -1
M  END
>  <NScode>
NS-008993915-0000

>  <a_acc>
3

>  <a_don>
2

>  <chiral>
0

>  <opr_nrot>
2

>  <Weight>
177.16299

>  <druglike>
1

>  <lip_druglike>
1

>  <lip_violation>
0

>  <logS>
-0.49735001

$$$$
