NS-020467919-0000
  MOE2022           3D

 22 24  0  0  0  0  0  0  0  0999 V2000
    0.6590    2.4660   -1.5990 O   0  0  0  0  0  0  0  0  0  0  0  0
   -0.2860    2.0230   -0.9690 C   0  0  0  0  0  0  0  0  0  0  0  0
   -1.4370    2.6940   -1.1310 N   0  0  0  0  0  0  0  0  0  0  0  0
   -0.2530    0.8700   -0.0990 C   0  0  0  0  0  0  0  0  0  0  0  0
   -1.2230    0.3050    0.6900 C   0  0  0  0  0  0  0  0  0  0  0  0
   -2.5990    0.7460    0.8500 C   0  0  0  0  0  0  0  0  0  0  0  0
   -2.9370    1.5730    1.9260 C   0  0  0  0  0  0  0  0  0  0  0  0
   -4.2330    2.0480    2.0790 C   0  0  0  0  0  0  0  0  0  0  0  0
   -5.2130    1.7000    1.1570 C   0  0  0  0  0  0  0  0  0  0  0  0
   -4.8940    0.8710    0.0850 C   0  0  0  0  0  0  0  0  0  0  0  0
   -3.5970    0.3880   -0.0730 C   0  0  0  0  0  0  0  0  0  0  0  0
   -3.2740   -0.5170   -1.2470 C   0  0  0  0  0  0  0  0  0  0  0  0
   -0.6300   -0.7820    1.3180 C   0  0  0  0  0  0  0  0  0  0  0  0
    0.6170   -0.9140    0.9660 N   0  0  0  0  0  0  0  0  0  0  0  0
    0.8590    0.0980    0.0930 N   0  0  0  0  0  0  0  0  0  0  0  0
    2.1800    0.2980   -0.5400 C   0  0  0  0  0  0  0  0  0  0  0  0
    3.2560   -0.7380   -0.2530 C   0  0  0  0  0  0  0  0  0  0  0  0
    4.3030   -0.4470    0.6220 C   0  0  0  0  0  0  0  0  0  0  0  0
    5.2960   -1.3900    0.8690 C   0  0  0  0  0  0  0  0  0  0  0  0
    5.2460   -2.6330    0.2450 C   0  0  0  0  0  0  0  0  0  0  0  0
    4.2010   -2.9330   -0.6220 C   0  0  0  0  0  0  0  0  0  0  0  0
    3.2080   -1.9890   -0.8680 C   0  0  0  0  0  0  0  0  0  0  0  0
  1  2  2  0  0  0  0
  2  3  1  0  0  0  0
  2  4  1  0  0  0  0
  4  5  2  0  0  0  0
  4 15  1  0  0  0  0
  5  6  1  0  0  0  0
  5 13  1  0  0  0  0
  6  7  1  0  0  0  0
  6 11  2  0  0  0  0
  7  8  2  0  0  0  0
  8  9  1  0  0  0  0
  9 10  2  0  0  0  0
 10 11  1  0  0  0  0
 11 12  1  0  0  0  0
 13 14  2  0  0  0  0
 14 15  1  0  0  0  0
 15 16  1  0  0  0  0
 16 17  1  0  0  0  0
 17 18  1  0  0  0  0
 17 22  2  0  0  0  0
 18 19  2  0  0  0  0
 19 20  1  0  0  0  0
 20 21  2  0  0  0  0
 21 22  1  0  0  0  0
M  END
>  <NScode>
NS-020467919-0000

>  <a_acc>
2

>  <a_don>
1

>  <chiral>
0

>  <opr_nrot>
4

>  <Weight>
291.354

>  <druglike>
1

>  <lip_druglike>
1

>  <lip_violation>
0

>  <logS>
-4.7881699

$$$$
