NS-050138182-0000
  MOE2022           3D

 20 21  0  0  0  0  0  0  0  0999 V2000
   -3.8190    3.9600    1.7680 C   0  0  0  0  0  0  0  0  0  0  0  0
   -3.8900    2.9650    0.7130 O   0  0  0  0  0  0  0  0  0  0  0  0
   -2.8210    2.6710   -0.0480 C   0  0  0  0  0  0  0  0  0  0  0  0
   -1.7550    3.2570    0.1420 O   0  0  0  0  0  0  0  0  0  0  0  0
   -2.9920    1.5910   -1.0880 C   0  0  0  0  0  0  0  0  0  0  0  0
   -2.7600    0.1860   -0.5430 C   0  0  0  0  0  0  0  0  0  0  0  0
   -1.4390   -0.2590   -0.4530 C   0  0  0  0  0  0  0  0  0  0  0  0
   -1.1640   -1.5330    0.0450 C   0  0  0  0  0  0  0  0  0  0  0  0
    0.1190   -2.0160    0.1540 O   0  0  0  0  0  0  0  0  0  0  0  0
    1.3310   -1.2460   -0.1240 C   0  0  0  0  0  0  0  0  0  0  0  0
    2.6120   -2.0320    0.0830 C   0  0  0  0  0  0  0  0  0  0  0  0
    3.1830   -2.0270    1.2900 N   0  0  0  0  0  0  0  0  0  0  0  0
    4.3000   -2.7100    1.4890 C   0  0  0  0  0  0  0  0  0  0  0  0
    4.8690   -3.4180    0.4460 C   0  0  0  0  0  0  0  0  0  0  0  0
    4.2480   -3.3910   -0.7900 C   0  0  0  0  0  0  0  0  0  0  0  0
    3.1320   -2.6970   -0.9520 N   0  0  0  0  0  0  0  0  0  0  0  0
   -2.1910   -2.3720    0.4570 C   0  0  0  0  0  0  0  0  0  0  0  0
   -3.5060   -1.9310    0.3790 C   0  0  0  0  0  0  0  0  0  0  0  0
   -3.8000   -0.6580   -0.1130 C   0  0  0  0  0  0  0  0  0  0  0  0
   -5.6270   -0.1460   -0.1590 Br  0  0  0  0  0  0  0  0  0  0  0  0
  1  2  1  0  0  0  0
  2  3  1  0  0  0  0
  3  4  2  0  0  0  0
  3  5  1  0  0  0  0
  5  6  1  0  0  0  0
  6  7  1  0  0  0  0
  6 19  2  0  0  0  0
  7  8  2  0  0  0  0
  8  9  1  0  0  0  0
  8 17  1  0  0  0  0
  9 10  1  0  0  0  0
 10 11  1  0  0  0  0
 11 12  1  0  0  0  0
 11 16  2  0  0  0  0
 12 13  2  0  0  0  0
 13 14  1  0  0  0  0
 14 15  2  0  0  0  0
 15 16  1  0  0  0  0
 17 18  2  0  0  0  0
 18 19  1  0  0  0  0
 19 20  1  0  0  0  0
M  END
>  <NScode>
NS-050138182-0000

>  <a_acc>
4

>  <a_don>
0

>  <chiral>
0

>  <opr_nrot>
5

>  <Weight>
337.173

>  <druglike>
1

>  <lip_druglike>
1

>  <lip_violation>
0

>  <logS>
-3.4714301

$$$$
