NS-014285877-0000
  MOE2022           3D

 34 37  0  0  0  0  0  0  0  0999 V2000
   -1.2650   -0.4940    0.4580 N   0  0  0  0  0  0  0  0  0  0  0  0
   -0.9830   -1.8150    0.3960 C   0  0  0  0  0  0  0  0  0  0  0  0
   -0.1050    0.1370    0.6520 C   0  0  0  0  0  0  0  0  0  0  0  0
   -2.5380    0.0670    0.3280 N   0  0  0  0  0  0  0  0  0  0  0  0
    0.3140   -1.9840    0.5430 N   0  0  0  0  0  0  0  0  0  0  0  0
    0.8550   -0.7450    0.7000 N   0  0  0  0  0  0  0  0  0  0  0  0
   -3.5180   -0.7760    0.1380 C   0  0  0  0  0  0  0  0  0  0  0  0
   -2.0610   -2.7120    0.1920 C   0  0  0  0  0  0  0  0  0  0  0  0
    1.3850    4.4120   -0.1440 C   0  0  0  0  0  0  0  0  0  0  0  0
   -3.3170   -2.1930    0.0640 C   0  0  0  0  0  0  0  0  0  0  0  0
    0.0110    1.6410    0.7530 C   0  0  0  0  0  0  0  0  0  0  0  0
   -6.2040    2.4410   -0.1610 C   0  0  0  0  0  0  0  0  0  0  0  0
    2.7060    3.7790   -0.0990 C   0  0  0  0  0  0  0  0  0  0  0  0
   -5.1430   -0.1720   -0.0310 S   0  0  0  0  0  0  0  0  0  0  0  0
    1.1740    5.5560    0.2210 O   0  0  0  0  0  0  0  0  0  0  0  0
   -6.2730    3.2970   -1.0340 O   0  0  0  0  0  0  0  0  0  0  0  0
    0.2720    3.7490   -0.5660 N   0  0  0  0  0  0  0  0  0  0  0  0
    3.4610    3.8200    1.0790 C   0  0  0  0  0  0  0  0  0  0  0  0
    3.2410    3.1310   -1.2200 C   0  0  0  0  0  0  0  0  0  0  0  0
   -7.2580    2.1490    0.6080 N   0  0  0  0  0  0  0  0  0  0  0  0
   -4.9360    1.6500    0.0780 C   0  0  0  0  0  0  0  0  0  0  0  0
    0.1390    2.2900   -0.6270 C   0  0  0  0  0  0  0  0  0  0  0  0
    4.4870    2.5170   -1.1530 C   0  0  0  0  0  0  0  0  0  0  0  0
    4.7060    3.2060    1.1430 C   0  0  0  0  0  0  0  0  0  0  0  0
    5.2250    2.5510    0.0280 C   0  0  0  0  0  0  0  0  0  0  0  0
   -8.5490    2.8250    0.5090 C   0  0  0  0  0  0  0  0  0  0  0  0
  -10.8510    2.6690   -0.5570 C   0  0  0  0  0  0  0  0  0  0  0  0
   -9.4530    2.0870   -0.4800 C   0  0  0  0  0  0  0  0  0  0  0  0
    6.5740    1.8700    0.1020 C   0  0  0  0  0  0  0  0  0  0  0  0
  -11.8880    2.1310    0.2290 C   0  0  0  0  0  0  0  0  0  0  0  0
  -11.1130    3.7610   -1.4060 C   0  0  0  0  0  0  0  0  0  0  0  0
  -12.4060    4.3100   -1.4710 C   0  0  0  0  0  0  0  0  0  0  0  0
  -13.1810    2.6800    0.1640 C   0  0  0  0  0  0  0  0  0  0  0  0
  -13.4400    3.7700   -0.6860 C   0  0  0  0  0  0  0  0  0  0  0  0
  1  2  1  0  0  0  0
  1  3  1  0  0  0  0
  1  4  1  0  0  0  0
  2  5  2  0  0  0  0
  2  8  1  0  0  0  0
  3  6  2  0  0  0  0
  3 11  1  0  0  0  0
  4  7  2  0  0  0  0
  5  6  1  0  0  0  0
  7 10  1  0  0  0  0
  7 14  1  0  0  0  0
  8 10  2  0  0  0  0
  9 13  1  0  0  0  0
  9 15  2  0  0  0  0
  9 17  1  0  0  0  0
 11 22  1  0  0  0  0
 12 16  2  0  0  0  0
 12 20  1  0  0  0  0
 12 21  1  0  0  0  0
 13 18  1  0  0  0  0
 13 19  2  0  0  0  0
 14 21  1  0  0  0  0
 17 22  1  0  0  0  0
 18 24  2  0  0  0  0
 19 23  1  0  0  0  0
 20 26  1  0  0  0  0
 23 25  2  0  0  0  0
 24 25  1  0  0  0  0
 25 29  1  0  0  0  0
 26 28  1  0  0  0  0
 27 28  1  0  0  0  0
 27 30  1  0  0  0  0
 27 31  2  0  0  0  0
 30 33  2  0  0  0  0
 31 32  1  0  0  0  0
 32 34  2  0  0  0  0
 33 34  1  0  0  0  0
M  END
>  <NScode>
NS-014285877-0000

>  <a_acc>
5

>  <a_don>
2

>  <chiral>
0

>  <opr_nrot>
10

>  <Weight>
474.58899

>  <druglike>
1

>  <lip_druglike>
1

>  <lip_violation>
0

>  <logS>
-6.20649

$$$$
