NS-017923120-0000
  MOE2022           3D

 19 20  0  0  0  0  0  0  0  0999 V2000
   -3.0020    0.1330   -0.0510 S   0  0  0  0  0  0  0  0  0  0  0  0
   -2.1760    1.5410    0.1310 N   0  0  0  0  0  0  0  0  0  0  0  0
   -4.2100    0.3860   -0.7480 O   0  0  0  0  0  0  0  0  0  0  0  0
   -3.0950   -0.5110    1.2100 O   0  0  0  0  0  0  0  0  0  0  0  0
   -2.0330   -0.7290   -1.0250 N   0  0  0  0  0  0  0  0  0  0  0  0
   -1.2160    1.6430    1.2370 C   0  0  0  0  0  0  0  0  0  0  0  0
   -2.8920    2.8040   -0.0840 C   0  0  0  0  0  0  0  0  0  0  0  0
    2.2300   -1.7630   -1.0950 N   0  0  0  0  0  0  0  0  0  0  0  0
    1.2470   -2.6540   -0.9670 C   0  0  0  0  0  0  0  0  0  0  0  0
   -0.7170   -1.1420   -0.5690 C   0  0  0  0  0  0  0  0  0  0  0  0
   -0.1240   -2.2410   -1.4460 C   0  0  0  0  0  0  0  0  0  0  0  0
   -0.2150    2.7870    1.0290 C   0  0  0  0  0  0  0  0  0  0  0  0
   -1.9300    3.9800   -0.3080 C   0  0  0  0  0  0  0  0  0  0  0  0
   -0.9180    4.1380    0.8360 C   0  0  0  0  0  0  0  0  0  0  0  0
    3.4610   -2.0680   -0.6860 C   0  0  0  0  0  0  0  0  0  0  0  0
    1.4750   -3.9080   -0.4030 C   0  0  0  0  0  0  0  0  0  0  0  0
    0.0970    5.2440    0.5230 C   0  0  0  0  0  0  0  0  0  0  0  0
    3.7570   -3.3030   -0.1170 C   0  0  0  0  0  0  0  0  0  0  0  0
    2.7490   -4.2450    0.0310 C   0  0  0  0  0  0  0  0  0  0  0  0
  1  2  1  0  0  0  0
  1  3  2  0  0  0  0
  1  4  2  0  0  0  0
  1  5  1  0  0  0  0
  2  6  1  0  0  0  0
  2  7  1  0  0  0  0
  5 10  1  0  0  0  0
  6 12  1  0  0  0  0
  7 13  1  0  0  0  0
  8  9  2  0  0  0  0
  8 15  1  0  0  0  0
  9 11  1  0  0  0  0
  9 16  1  0  0  0  0
 10 11  1  0  0  0  0
 12 14  1  0  0  0  0
 13 14  1  0  0  0  0
 14 17  1  0  0  0  0
 15 18  2  0  0  0  0
 16 19  2  0  0  0  0
 18 19  1  0  0  0  0
M  END
>  <NScode>
NS-017923120-0000

>  <a_acc>
3

>  <a_don>
1

>  <chiral>
0

>  <opr_nrot>
5

>  <Weight>
283.396

>  <druglike>
1

>  <lip_druglike>
1

>  <lip_violation>
0

>  <logS>
-1.16539

$$$$
