NS-015636409-0000
  MOE2022           3D

 20 21  0  0  0  0  0  0  0  0999 V2000
    5.8610    1.5130    0.0460 N   0  0  0  0  0  0  0  0  0  0  0  0
    3.4060    1.5780   -0.2100 C   0  0  0  0  0  0  0  0  0  0  0  0
    7.0020   -0.6220    0.1450 C   0  0  0  0  0  0  0  0  0  0  0  0
    4.6120    0.9020   -0.0360 N   0  0  0  0  0  0  0  0  0  0  0  0
    6.9410    0.8330    0.1650 C   0  0  0  0  0  0  0  0  0  0  0  0
    2.1880    0.7790   -0.3340 C   0  0  0  0  0  0  0  0  0  0  0  0
    6.4710   -1.3710   -0.9240 C   0  0  0  0  0  0  0  0  0  0  0  0
    3.4200    2.8060   -0.2390 O   0  0  0  0  0  0  0  0  0  0  0  0
    2.2150   -0.5530   -0.7960 C   0  0  0  0  0  0  0  0  0  0  0  0
    0.9480    1.3450    0.0100 C   0  0  0  0  0  0  0  0  0  0  0  0
   -0.1680   -0.7180   -0.5160 C   0  0  0  0  0  0  0  0  0  0  0  0
   -1.3270   -1.4590   -0.5930 N   0  0  0  0  0  0  0  0  0  0  0  0
   -0.2240    0.6050   -0.0780 C   0  0  0  0  0  0  0  0  0  0  0  0
    1.0470   -1.2980   -0.8840 C   0  0  0  0  0  0  0  0  0  0  0  0
    5.8750   -0.7440   -1.9830 O   0  0  0  0  0  0  0  0  0  0  0  0
    7.6220   -1.3310    1.1870 C   0  0  0  0  0  0  0  0  0  0  0  0
    8.2280    1.6060    0.3280 C   0  0  0  0  0  0  0  0  0  0  0  0
    6.5410   -2.7580   -0.9530 C   0  0  0  0  0  0  0  0  0  0  0  0
    7.6940   -2.7210    1.1630 C   0  0  0  0  0  0  0  0  0  0  0  0
    7.1530   -3.4350    0.0950 C   0  0  0  0  0  0  0  0  0  0  0  0
  1  4  1  0  0  0  0
  1  5  2  0  0  0  0
  2  4  1  0  0  0  0
  2  6  1  0  0  0  0
  2  8  2  0  0  0  0
  3  5  1  0  0  0  0
  3  7  1  0  0  0  0
  3 16  2  0  0  0  0
  5 17  1  0  0  0  0
  6  9  1  0  0  0  0
  6 10  2  0  0  0  0
  7 15  1  0  0  0  0
  7 18  2  0  0  0  0
  9 14  2  0  0  0  0
 10 13  1  0  0  0  0
 11 12  1  0  0  0  0
 11 13  2  0  0  0  0
 11 14  1  0  0  0  0
 16 19  1  0  0  0  0
 18 20  1  0  0  0  0
 19 20  2  0  0  0  0
M  END
>  <NScode>
NS-015636409-0000

>  <a_acc>
3

>  <a_don>
3

>  <chiral>
0

>  <opr_nrot>
3

>  <Weight>
269.30399

>  <druglike>
1

>  <lip_druglike>
1

>  <lip_violation>
0

>  <logS>
-3.2032399

$$$$
