NS-012608361-0000
  MOE2022           3D

 29 33  0  0  0  0  0  0  0  0999 V2000
    2.9910   -2.3900    0.3140 N   0  0  0  0  0  0  0  0  0  0  0  0
    3.6790   -1.2180    0.4510 N   0  0  0  0  0  0  0  0  0  0  0  0
    2.6410   -2.9050   -0.9320 C   0  0  0  0  0  0  0  0  0  0  0  0
   -1.4570   -0.9970    0.1700 C   0  0  0  0  0  0  0  0  0  0  0  0
   -0.2580   -0.3850    0.4120 N   0  0  0  0  0  0  0  0  0  0  0  0
    4.0130   -0.5160   -0.5670 N   0  0  0  0  0  0  0  0  0  0  0  0
    2.9600   -2.0980   -2.0840 C   0  0  0  0  0  0  0  0  0  0  0  0
    2.6690   -3.1050    1.5680 C   0  0  0  0  0  0  0  0  0  0  0  0
   -1.8840   -0.7430   -1.0260 N   0  0  0  0  0  0  0  0  0  0  0  0
    1.6400   -2.4260    2.4660 C   0  0  0  0  0  0  0  0  0  0  0  0
    0.3190   -2.6990    2.3440 N   0  0  0  0  0  0  0  0  0  0  0  0
    0.0840    0.3210   -0.6930 C   0  0  0  0  0  0  0  0  0  0  0  0
   -0.9320    0.0800   -1.5930 C   0  0  0  0  0  0  0  0  0  0  0  0
    3.6690   -0.9110   -1.8700 C   0  0  0  0  0  0  0  0  0  0  0  0
   -2.1440   -1.8750    1.2070 C   0  0  0  0  0  0  0  0  0  0  0  0
    2.1030   -4.0140   -0.9770 O   0  0  0  0  0  0  0  0  0  0  0  0
   -0.6620   -2.1700    3.3180 C   0  0  0  0  0  0  0  0  0  0  0  0
   -0.2280   -3.5350    1.2500 C   0  0  0  0  0  0  0  0  0  0  0  0
    2.0080   -1.5870    3.2830 O   0  0  0  0  0  0  0  0  0  0  0  0
   -1.8520   -1.4390    2.6600 C   0  0  0  0  0  0  0  0  0  0  0  0
   -1.7370   -3.3460    1.0390 C   0  0  0  0  0  0  0  0  0  0  0  0
    2.5940   -2.4630   -3.3900 C   0  0  0  0  0  0  0  0  0  0  0  0
    1.1800    1.1460   -0.9730 C   0  0  0  0  0  0  0  0  0  0  0  0
   -0.8640    0.6650   -2.8640 C   0  0  0  0  0  0  0  0  0  0  0  0
    4.0260   -0.1100   -2.9630 C   0  0  0  0  0  0  0  0  0  0  0  0
    2.9430   -1.6580   -4.4650 C   0  0  0  0  0  0  0  0  0  0  0  0
    1.2370    1.7230   -2.2310 C   0  0  0  0  0  0  0  0  0  0  0  0
    0.2170    1.4790   -3.1790 C   0  0  0  0  0  0  0  0  0  0  0  0
    3.6640   -0.4810   -4.2500 C   0  0  0  0  0  0  0  0  0  0  0  0
  1  2  1  0  0  0  0
  1  3  1  0  0  0  0
  1  8  1  0  0  0  0
  2  6  2  0  0  0  0
  3  7  1  0  0  0  0
  3 16  2  0  0  0  0
  4  5  1  0  0  0  0
  4  9  2  0  0  0  0
  4 15  1  0  0  0  0
  5 12  1  0  0  0  0
  6 14  1  0  0  0  0
  7 14  2  0  0  0  0
  7 22  1  0  0  0  0
  8 10  1  0  0  0  0
  9 13  1  0  0  0  0
 10 11  1  0  0  0  0
 10 19  2  0  0  0  0
 11 17  1  0  0  0  0
 11 18  1  0  0  0  0
 12 13  2  0  0  0  0
 12 23  1  0  0  0  0
 13 24  1  0  0  0  0
 14 25  1  0  0  0  0
 15 20  1  0  0  0  0
 15 21  1  0  0  0  0
 17 20  1  0  0  0  0
 18 21  1  0  0  0  0
 22 26  2  0  0  0  0
 23 27  2  0  0  0  0
 24 28  2  0  0  0  0
 25 29  2  0  0  0  0
 26 29  1  0  0  0  0
 27 28  1  0  0  0  0
M  END
>  <NScode>
NS-012608361-0000

>  <a_acc>
6

>  <a_don>
2

>  <chiral>
0

>  <opr_nrot>
5

>  <Weight>
388.431

>  <druglike>
1

>  <lip_druglike>
1

>  <lip_violation>
0

>  <logS>
-4.3291302

$$$$
