NS-005917491-0000
  MOE2022           3D

 20 21  0  0  0  0  0  0  0  0999 V2000
   -1.2620   -1.5420    0.1910 C   0  0  0  0  0  0  0  0  0  0  0  0
   -1.1310    0.2210   -0.1440 S   0  0  0  0  0  0  0  0  0  0  0  0
   -0.5270   -2.4590   -0.5630 C   0  0  0  0  0  0  0  0  0  0  0  0
   -2.1180   -2.0210    1.1850 C   0  0  0  0  0  0  0  0  0  0  0  0
    0.1250    0.6690    0.7650 N   0  0  0  0  0  0  0  0  0  0  0  0
   -0.8300    0.3700   -1.5410 O   0  0  0  0  0  0  0  0  0  0  0  0
   -2.3380    0.8430    0.3350 O   0  5  0  0  0  0  0  0  0  0  0  0
   -0.6360   -3.8260   -0.3240 C   0  0  0  0  0  0  0  0  0  0  0  0
   -2.2300   -3.3880    1.4270 C   0  0  0  0  0  0  0  0  0  0  0  0
    0.9670    1.7110    0.8690 C   0  0  0  0  0  0  0  0  0  0  0  0
   -1.4880   -4.2930    0.6730 C   0  0  0  0  0  0  0  0  0  0  0  0
    0.9660    2.9090    0.0760 C   0  0  0  0  0  0  0  0  0  0  0  0
    1.9860    1.6220    1.8500 C   0  0  0  0  0  0  0  0  0  0  0  0
   -1.6370   -6.1510    1.0010 Br  0  0  0  0  0  0  0  0  0  0  0  0
    1.9290    3.8900    0.2370 C   0  0  0  0  0  0  0  0  0  0  0  0
    0.0080    3.1710   -0.8870 O   0  0  0  0  0  0  0  0  0  0  0  0
    2.9390    2.6190    2.0060 C   0  0  0  0  0  0  0  0  0  0  0  0
    2.9270    3.7590    1.2010 C   0  0  0  0  0  0  0  0  0  0  0  0
   -1.3080    3.5510   -0.4460 C   0  0  0  0  0  0  0  0  0  0  0  0
    4.1690    2.4540    3.2170 Cl  0  0  0  0  0  0  0  0  0  0  0  0
  1  2  1  0  0  0  0
  1  3  2  0  0  0  0
  1  4  1  0  0  0  0
  2  5  2  0  0  0  0
  2  6  2  0  0  0  0
  2  7  1  0  0  0  0
  3  8  1  0  0  0  0
  4  9  2  0  0  0  0
  5 10  1  0  0  0  0
  8 11  2  0  0  0  0
  9 11  1  0  0  0  0
 10 12  2  0  0  0  0
 10 13  1  0  0  0  0
 11 14  1  0  0  0  0
 12 15  1  0  0  0  0
 12 16  1  0  0  0  0
 13 17  2  0  0  0  0
 15 18  2  0  0  0  0
 16 19  1  0  0  0  0
 17 18  1  0  0  0  0
 17 20  1  0  0  0  0
M  CHG  1   7  -1
M  END
>  <NScode>
NS-005917491-0000

>  <a_acc>
3

>  <a_don>
1

>  <chiral>
0

>  <opr_nrot>
3

>  <Weight>
376.65799

>  <druglike>
1

>  <lip_druglike>
1

>  <lip_violation>
0

>  <logS>
-4.9217801

$$$$
