NS-022018618-0000
  MOE2022           3D

 23 25  0  0  1  0  0  0  0  0999 V2000
    0.6100    6.1120    0.4890 C   0  0  0  0  0  0  0  0  0  0  0  0
    0.0230    5.2270   -0.4570 O   0  0  0  0  0  0  0  0  0  0  0  0
   -0.0870    3.8800    0.0040 C   0  0  2  0  0  0  0  0  0  0  0  0
    1.2360    3.1240    0.1700 C   0  0  0  0  0  0  0  0  0  0  0  0
    0.9210    1.7190   -0.0670 N   0  0  0  0  0  0  0  0  0  0  0  0
   -0.4130    1.5970   -0.6420 C   0  0  0  0  0  0  0  0  0  0  0  0
   -0.7970    3.0210   -1.0500 C   0  0  1  0  0  0  0  0  0  0  0  0
   -2.2870    3.2890   -1.1110 C   0  0  0  0  0  0  0  0  0  0  0  0
   -3.3840    2.5100   -1.1310 C   0  0  0  0  0  0  0  0  0  0  0  0
   -4.4930    3.2720   -1.1960 N   0  0  0  0  0  0  0  0  0  0  0  0
   -4.1030    4.5250   -1.2210 N   0  0  0  0  0  0  0  0  0  0  0  0
   -2.7650    4.5350   -1.1740 N   0  0  0  0  0  0  0  0  0  0  0  0
    1.7730    0.7270    0.2330 C   0  0  0  0  0  0  0  0  0  0  0  0
    2.8640    0.9660    0.7370 O   0  0  0  0  0  0  0  0  0  0  0  0
    1.3540   -0.7130   -0.0650 C   0  0  0  0  0  0  0  0  0  0  0  0
    2.4040   -1.7580    0.3350 C   0  0  0  0  0  0  0  0  0  0  0  0
    1.9540   -3.1620   -0.0100 C   0  0  0  0  0  0  0  0  0  0  0  0
    2.2550   -3.7160   -1.2540 C   0  0  0  0  0  0  0  0  0  0  0  0
    1.8500   -4.9350   -1.6000 N   0  0  0  0  0  0  0  0  0  0  0  0
    1.1400   -5.6610   -0.7380 C   0  0  0  0  0  0  0  0  0  0  0  0
    0.8020   -5.1820    0.5280 C   0  0  0  0  0  0  0  0  0  0  0  0
   -0.0140   -6.0270    1.4820 C   0  0  0  0  0  0  0  0  0  0  0  0
    1.2120   -3.9080    0.8970 C   0  0  0  0  0  0  0  0  0  0  0  0
  1  2  1  0  0  0  0
  2  3  1  0  0  0  0
  3  4  1  0  0  0  0
  3  7  1  0  0  0  0
  4  5  1  0  0  0  0
  5  6  1  0  0  0  0
  5 13  1  0  0  0  0
  6  7  1  0  0  0  0
  7  8  1  0  0  0  0
  8  9  2  0  0  0  0
  8 12  1  0  0  0  0
  9 10  1  0  0  0  0
 10 11  2  0  0  0  0
 11 12  1  0  0  0  0
 13 14  2  0  0  0  0
 13 15  1  0  0  0  0
 15 16  1  0  0  0  0
 16 17  1  0  0  0  0
 17 18  2  0  0  0  0
 17 23  1  0  0  0  0
 18 19  1  0  0  0  0
 19 20  2  0  0  0  0
 20 21  1  0  0  0  0
 21 22  1  0  0  0  0
 21 23  2  0  0  0  0
M  END
>  <NScode>
NS-022018618-0000

>  <a_acc>
6

>  <a_don>
2

>  <chiral>
2

>  <opr_nrot>
6

>  <Weight>
315.37698

>  <druglike>
1

>  <lip_druglike>
1

>  <lip_violation>
0

>  <logS>
-0.37537

$$$$
