NS-015812520-0000
  MOE2022           3D

 30 33  0  0  0  0  0  0  0  0999 V2000
    2.8670   -5.0200    0.1000 N   0  0  0  0  0  0  0  0  0  0  0  0
   -2.2500    3.5580   -0.3290 C   0  0  0  0  0  0  0  0  0  0  0  0
   -3.3290    2.9160    0.1560 N   0  0  0  0  0  0  0  0  0  0  0  0
    2.6290    0.6580    0.1040 C   0  0  0  0  0  0  0  0  0  0  0  0
   -1.1040    2.8430   -0.4340 N   0  0  0  0  0  0  0  0  0  0  0  0
    1.4310    1.3380   -0.0540 N   0  0  0  0  0  0  0  0  0  0  0  0
    4.0360   -5.7560    0.1460 C   0  0  0  0  0  0  0  0  0  0  0  0
    1.7700   -5.8570    0.0490 C   0  0  0  0  0  0  0  0  0  0  0  0
   -2.3480    4.9110   -0.6980 C   0  0  0  0  0  0  0  0  0  0  0  0
   -4.4630    3.5380    0.3060 C   0  0  0  0  0  0  0  0  0  0  0  0
   -4.5820    4.8400   -0.0330 N   0  3  0  0  0  0  0  0  0  0  0  0
    2.8030   -3.5980    0.1000 C   0  0  0  0  0  0  0  0  0  0  0  0
    2.6750   -0.8060    0.0990 C   0  0  0  0  0  0  0  0  0  0  0  0
   -3.5490    5.5540   -0.5380 C   0  0  0  0  0  0  0  0  0  0  0  0
    0.2100    3.4000   -0.8710 C   0  0  0  0  0  0  0  0  0  0  0  0
   -1.0810    1.3470   -0.3240 C   0  0  0  0  0  0  0  0  0  0  0  0
    1.4280    2.8140   -0.1250 C   0  0  0  0  0  0  0  0  0  0  0  0
    0.1450    0.7880    0.4290 C   0  0  0  0  0  0  0  0  0  0  0  0
    3.6400    1.3370    0.2530 O   0  0  0  0  0  0  0  0  0  0  0  0
    3.7310   -7.2280    0.1200 C   0  0  0  0  0  0  0  0  0  0  0  0
    2.2060   -7.2970    0.0520 C   0  0  0  0  0  0  0  0  0  0  0  0
    5.1350   -5.2550    0.1980 O   0  0  0  0  0  0  0  0  0  0  0  0
    0.6310   -5.4550    0.0080 O   0  0  0  0  0  0  0  0  0  0  0  0
    2.0480   -2.9420   -0.8760 C   0  0  0  0  0  0  0  0  0  0  0  0
    3.4990   -2.8750    1.0710 C   0  0  0  0  0  0  0  0  0  0  0  0
    1.9910   -1.5540   -0.8760 C   0  0  0  0  0  0  0  0  0  0  0  0
    3.4350   -1.4860    1.0640 C   0  0  0  0  0  0  0  0  0  0  0  0
   -5.7090    2.8630    0.8470 C   0  0  0  0  0  0  0  0  0  0  0  0
   -3.8340    7.0000   -0.8810 C   0  0  0  0  0  0  0  0  0  0  0  0
   -6.8500    2.7090   -0.1740 C   0  0  0  0  0  0  0  0  0  0  0  0
  1  7  1  0  0  0  0
  1  8  1  0  0  0  0
  1 12  1  0  0  0  0
  2  3  2  0  0  0  0
  2  5  1  0  0  0  0
  2  9  1  0  0  0  0
  3 10  1  0  0  0  0
  4  6  1  0  0  0  0
  4 13  1  0  0  0  0
  4 19  2  0  0  0  0
  5 15  1  0  0  0  0
  5 16  1  0  0  0  0
  6 17  1  0  0  0  0
  6 18  1  0  0  0  0
  7 20  1  0  0  0  0
  7 22  2  0  0  0  0
  8 21  1  0  0  0  0
  8 23  2  0  0  0  0
  9 14  2  0  0  0  0
 10 11  2  0  0  0  0
 10 28  1  0  0  0  0
 11 14  1  0  0  0  0
 12 24  2  0  0  0  0
 12 25  1  0  0  0  0
 13 26  2  0  0  0  0
 13 27  1  0  0  0  0
 14 29  1  0  0  0  0
 15 17  1  0  0  0  0
 16 18  1  0  0  0  0
 20 21  1  0  0  0  0
 24 26  1  0  0  0  0
 25 27  2  0  0  0  0
 28 30  1  0  0  0  0
M  CHG  1  11   1
M  END
>  <NScode>
NS-015812520-0000

>  <a_acc>
5

>  <a_don>
0

>  <chiral>
0

>  <opr_nrot>
6

>  <Weight>
407.474

>  <druglike>
1

>  <lip_druglike>
1

>  <lip_violation>
0

>  <logS>
-3.41327

$$$$
