NS-006046201-0000
  MOE2022           3D

 21 22  0  0  0  0  0  0  0  0999 V2000
    0.0310   -1.6190   -0.6320 C   0  0  0  0  0  0  0  0  0  0  0  0
   -1.2180   -1.9790   -0.0790 C   0  0  0  0  0  0  0  0  0  0  0  0
    1.2020   -2.2980   -0.2460 C   0  0  0  0  0  0  0  0  0  0  0  0
    0.0350   -0.6040   -1.5840 O   0  0  0  0  0  0  0  0  0  0  0  0
   -1.2540   -3.0600    0.8180 C   0  0  0  0  0  0  0  0  0  0  0  0
   -2.4780   -1.3100   -0.3890 C   0  0  0  0  0  0  0  0  0  0  0  0
    1.1350   -3.3530    0.6640 C   0  0  0  0  0  0  0  0  0  0  0  0
    2.4360   -1.9320   -0.7730 O   0  0  0  0  0  0  0  0  0  0  0  0
    1.1380    0.1560   -2.1280 C   0  0  0  0  0  0  0  0  0  0  0  0
   -0.0960   -3.7340    1.1860 C   0  0  0  0  0  0  0  0  0  0  0  0
   -2.7300   -0.0540   -0.3100 N   0  0  0  0  0  0  0  0  0  0  0  0
    3.7110   -2.5550   -0.4890 C   0  0  0  0  0  0  0  0  0  0  0  0
   -1.7350    0.8500    0.0410 N   0  0  0  0  0  0  0  0  0  0  0  0
   -1.9060    2.2180    0.2210 C   0  0  0  0  0  0  0  0  0  0  0  0
   -0.6910    3.0140    0.4630 C   0  0  0  0  0  0  0  0  0  0  0  0
   -3.0420    2.6960    0.1770 O   0  0  0  0  0  0  0  0  0  0  0  0
   -0.7800    4.4010    0.6430 C   0  0  0  0  0  0  0  0  0  0  0  0
    0.5240    2.4000    0.5130 N   0  0  0  0  0  0  0  0  0  0  0  0
    0.3620    5.1530    0.8740 C   0  0  0  0  0  0  0  0  0  0  0  0
    1.6240    3.1130    0.7350 C   0  0  0  0  0  0  0  0  0  0  0  0
    1.5800    4.4920    0.9200 C   0  0  0  0  0  0  0  0  0  0  0  0
  1  2  2  0  0  0  0
  1  3  1  0  0  0  0
  1  4  1  0  0  0  0
  2  5  1  0  0  0  0
  2  6  1  0  0  0  0
  3  7  2  0  0  0  0
  3  8  1  0  0  0  0
  4  9  1  0  0  0  0
  5 10  2  0  0  0  0
  6 11  2  0  0  0  0
  7 10  1  0  0  0  0
  8 12  1  0  0  0  0
 11 13  1  0  0  0  0
 13 14  1  0  0  0  0
 14 15  1  0  0  0  0
 14 16  2  0  0  0  0
 15 17  2  0  0  0  0
 15 18  1  0  0  0  0
 17 19  1  0  0  0  0
 18 20  2  0  0  0  0
 19 21  2  0  0  0  0
 20 21  1  0  0  0  0
M  END
>  <NScode>
NS-006046201-0000

>  <a_acc>
5

>  <a_don>
1

>  <chiral>
0

>  <opr_nrot>
5

>  <Weight>
285.30301

>  <druglike>
1

>  <lip_druglike>
1

>  <lip_violation>
0

>  <logS>
-2.53369

$$$$
