NS-022352250-0000
  MOE2022           3D

 28 31  0  0  0  0  0  0  0  0999 V2000
   -8.3510    1.0720   -0.1080 C   0  0  0  0  0  0  0  0  0  0  0  0
   -7.6890    2.3550   -0.3780 N   0  0  0  0  0  0  0  0  0  0  0  0
   -8.4590    3.5670   -0.0540 C   0  0  0  0  0  0  0  0  0  0  0  0
   -6.2960    2.4350   -0.2600 C   0  0  0  0  0  0  0  0  0  0  0  0
   -5.6770    3.5800   -0.1220 N   0  0  0  0  0  0  0  0  0  0  0  0
   -4.3420    3.3120   -0.0450 C   0  0  0  0  0  0  0  0  0  0  0  0
   -2.9750    4.3660    0.1390 S   0  0  0  0  0  0  0  0  0  0  0  0
   -1.8770    2.9970    0.1130 C   0  0  0  0  0  0  0  0  0  0  0  0
   -2.5610    1.8060   -0.0310 C   0  0  0  0  0  0  0  0  0  0  0  0
   -3.9440    2.0070   -0.1180 C   0  0  0  0  0  0  0  0  0  0  0  0
   -5.3220    0.9880   -0.2990 S   0  0  0  0  0  0  0  0  0  0  0  0
   -0.4450    3.1740    0.2330 C   0  0  0  0  0  0  0  0  0  0  0  0
    0.1270    4.2500    0.3530 O   0  0  0  0  0  0  0  0  0  0  0  0
    0.3180    2.0620    0.2140 O   0  0  0  0  0  0  0  0  0  0  0  0
    1.7570    2.1450    0.3290 C   0  0  0  0  0  0  0  0  0  0  0  0
    2.3880    0.7700    0.3000 C   0  0  0  0  0  0  0  0  0  0  0  0
    3.0950    0.3360   -0.8210 C   0  0  0  0  0  0  0  0  0  0  0  0
    3.6610   -0.9330   -0.8440 C   0  0  0  0  0  0  0  0  0  0  0  0
    3.5360   -1.7900    0.2580 C   0  0  0  0  0  0  0  0  0  0  0  0
    2.8100   -1.3530    1.3720 C   0  0  0  0  0  0  0  0  0  0  0  0
    2.2440   -0.0830    1.3940 C   0  0  0  0  0  0  0  0  0  0  0  0
    4.1330   -3.1280    0.2550 C   0  0  0  0  0  0  0  0  0  0  0  0
    3.5080   -4.1260    0.6000 O   0  0  0  0  0  0  0  0  0  0  0  0
    5.4480   -3.3060   -0.1210 N   0  0  0  0  0  0  0  0  0  0  0  0
    6.4600   -2.2650   -0.1850 C   0  0  0  0  0  0  0  0  0  0  0  0
    7.8100   -2.9380    0.0590 C   0  0  0  0  0  0  0  0  0  0  0  0
    7.5700   -4.3700   -0.4420 C   0  0  0  0  0  0  0  0  0  0  0  0
    6.1040   -4.6010   -0.0830 C   0  0  0  0  0  0  0  0  0  0  0  0
  1  2  1  0  0  0  0
  2  3  1  0  0  0  0
  2  4  1  0  0  0  0
  4  5  2  0  0  0  0
  4 11  1  0  0  0  0
  5  6  1  0  0  0  0
  6  7  1  0  0  0  0
  6 10  2  0  0  0  0
  7  8  1  0  0  0  0
  8  9  2  0  0  0  0
  8 12  1  0  0  0  0
  9 10  1  0  0  0  0
 10 11  1  0  0  0  0
 12 13  2  0  0  0  0
 12 14  1  0  0  0  0
 14 15  1  0  0  0  0
 15 16  1  0  0  0  0
 16 17  1  0  0  0  0
 16 21  2  0  0  0  0
 17 18  2  0  0  0  0
 18 19  1  0  0  0  0
 19 20  2  0  0  0  0
 19 22  1  0  0  0  0
 20 21  1  0  0  0  0
 22 23  2  0  0  0  0
 22 24  1  0  0  0  0
 24 25  1  0  0  0  0
 24 28  1  0  0  0  0
 25 26  1  0  0  0  0
 26 27  1  0  0  0  0
 27 28  1  0  0  0  0
M  END
>  <NScode>
NS-022352250-0000

>  <a_acc>
3

>  <a_don>
0

>  <chiral>
0

>  <opr_nrot>
6

>  <Weight>
415.53799

>  <druglike>
1

>  <lip_druglike>
1

>  <lip_violation>
0

>  <logS>
-5.9124599

$$$$
