NS-050049667-0000
  MOE2022           3D

 17 19  0  0  0  0  0  0  0  0999 V2000
   -1.8040   -4.9390   -0.0220 C   0  0  0  0  0  0  0  0  0  0  0  0
   -0.9530   -3.7870   -0.3260 N   0  0  0  0  0  0  0  0  0  0  0  0
   -1.4950   -2.5260   -0.2690 C   0  0  0  0  0  0  0  0  0  0  0  0
   -2.7330   -2.1830   -0.2590 N   0  0  0  0  0  0  0  0  0  0  0  0
   -2.7070   -0.8170   -0.1890 N   0  0  0  0  0  0  0  0  0  0  0  0
   -1.4570   -0.4590   -0.1660 C   0  0  0  0  0  0  0  0  0  0  0  0
   -0.6680   -1.5290   -0.2130 O   0  0  0  0  0  0  0  0  0  0  0  0
   -0.8870    0.8840   -0.0960 C   0  0  0  0  0  0  0  0  0  0  0  0
   -1.6010    1.9950   -0.0100 N   0  0  0  0  0  0  0  0  0  0  0  0
   -0.7130    3.0150    0.0360 N   0  0  0  0  0  0  0  0  0  0  0  0
   -1.1440    4.3940    0.1210 C   0  0  0  0  0  0  0  0  0  0  0  0
    0.5810    2.5760   -0.0180 C   0  0  0  0  0  0  0  0  0  0  0  0
    1.7970    3.2770    0.0020 C   0  0  0  0  0  0  0  0  0  0  0  0
    2.9630    2.5390   -0.0730 C   0  0  0  0  0  0  0  0  0  0  0  0
    2.9110    1.1290   -0.1680 C   0  0  0  0  0  0  0  0  0  0  0  0
    1.6950    0.4640   -0.1850 C   0  0  0  0  0  0  0  0  0  0  0  0
    0.4960    1.2050   -0.1060 C   0  0  0  0  0  0  0  0  0  0  0  0
  1  2  1  0  0  0  0
  2  3  1  0  0  0  0
  3  4  2  0  0  0  0
  3  7  1  0  0  0  0
  4  5  1  0  0  0  0
  5  6  2  0  0  0  0
  6  7  1  0  0  0  0
  6  8  1  0  0  0  0
  8  9  2  0  0  0  0
  8 17  1  0  0  0  0
  9 10  1  0  0  0  0
 10 11  1  0  0  0  0
 10 12  1  0  0  0  0
 12 13  1  0  0  0  0
 12 17  2  0  0  0  0
 13 14  2  0  0  0  0
 14 15  1  0  0  0  0
 15 16  2  0  0  0  0
 16 17  1  0  0  0  0
M  END
>  <NScode>
NS-050049667-0000

>  <a_acc>
3

>  <a_don>
1

>  <chiral>
0

>  <opr_nrot>
2

>  <Weight>
229.243

>  <druglike>
1

>  <lip_druglike>
1

>  <lip_violation>
0

>  <logS>
-3.8956399

$$$$
