NS-019988608-0000
  MOE2022           3D

 21 23  0  0  0  0  0  0  0  0999 V2000
   -4.4670    5.5510   -0.7620 N   0  0  0  0  0  0  0  0  0  0  0  0
   -5.5270    6.3110   -0.4290 C   0  0  0  0  0  0  0  0  0  0  0  0
   -5.6060    7.3830   -1.1220 N   0  0  0  0  0  0  0  0  0  0  0  0
   -3.9170    6.2230   -1.6930 C   0  0  0  0  0  0  0  0  0  0  0  0
   -6.5040    5.9120    0.6610 C   0  0  0  0  0  0  0  0  0  0  0  0
   -4.5730    7.3390   -1.9370 O   0  0  0  0  0  0  0  0  0  0  0  0
   -1.1400    3.6750    0.5480 C   0  0  0  0  0  0  0  0  0  0  0  0
   -1.6370    4.8190    0.0060 N   0  0  0  0  0  0  0  0  0  0  0  0
   -7.4740    6.9060    1.2510 C   0  0  0  0  0  0  0  0  0  0  0  0
   -6.3030    6.4370    2.0600 C   0  0  0  0  0  0  0  0  0  0  0  0
   -0.9080    5.8560   -0.6230 C   0  0  0  0  0  0  0  0  0  0  0  0
   -1.3950    6.4080   -1.8170 C   0  0  0  0  0  0  0  0  0  0  0  0
   -2.6660    5.8900   -2.4720 C   0  0  0  0  0  0  0  0  0  0  0  0
   -1.8890    2.8820    1.0930 O   0  0  0  0  0  0  0  0  0  0  0  0
    0.1840    3.4560    0.4330 O   0  0  0  0  0  0  0  0  0  0  0  0
    0.2640    6.3380   -0.0350 C   0  0  0  0  0  0  0  0  0  0  0  0
   -0.6840    7.4520   -2.4090 C   0  0  0  0  0  0  0  0  0  0  0  0
    0.7700    2.2570    0.9730 C   0  0  0  0  0  0  0  0  0  0  0  0
    2.2790    2.2330    0.7450 C   0  0  0  0  0  0  0  0  0  0  0  0
    0.9610    7.3740   -0.6430 C   0  0  0  0  0  0  0  0  0  0  0  0
    0.4890    7.9310   -1.8280 C   0  0  0  0  0  0  0  0  0  0  0  0
  1  2  1  0  0  0  0
  1  4  2  0  0  0  0
  2  3  2  0  0  0  0
  2  5  1  0  0  0  0
  3  6  1  0  0  0  0
  4  6  1  0  0  0  0
  4 13  1  0  0  0  0
  5  9  1  0  0  0  0
  5 10  1  0  0  0  0
  7  8  1  0  0  0  0
  7 14  2  0  0  0  0
  7 15  1  0  0  0  0
  8 11  1  0  0  0  0
  9 10  1  0  0  0  0
 11 12  2  0  0  0  0
 11 16  1  0  0  0  0
 12 13  1  0  0  0  0
 12 17  1  0  0  0  0
 15 18  1  0  0  0  0
 16 20  2  0  0  0  0
 17 21  2  0  0  0  0
 18 19  1  0  0  0  0
 20 21  1  0  0  0  0
M  END
>  <NScode>
NS-019988608-0000

>  <a_acc>
3

>  <a_don>
1

>  <chiral>
0

>  <opr_nrot>
5

>  <Weight>
287.319

>  <druglike>
1

>  <lip_druglike>
1

>  <lip_violation>
0

>  <logS>
-3.2009101

$$$$
