NS-018849034-0000
  MOE2022           3D

 22 24  0  0  1  0  0  0  0  0999 V2000
   -2.1380   -2.3100   -0.7580 C   0  0  0  0  0  0  0  0  0  0  0  0
   -3.3090   -3.0290   -0.9260 C   0  0  0  0  0  0  0  0  0  0  0  0
   -1.5610   -2.3870    0.5290 C   0  0  0  0  0  0  0  0  0  0  0  0
   -3.8550   -3.7800    0.0600 N   0  0  0  0  0  0  0  0  0  0  0  0
   -2.0800   -3.1230    1.4740 N   0  0  0  0  0  0  0  0  0  0  0  0
   -0.4390   -1.7340    0.9500 N   0  0  0  0  0  0  0  0  0  0  0  0
   -3.9520   -2.8640   -2.5260 S   0  0  0  0  0  0  0  0  0  0  0  0
   -0.3990   -0.2560    0.8200 C   0  0  0  0  0  0  0  0  0  0  0  0
    1.0510    0.2890    0.8620 C   0  0  3  0  0  0  0  0  0  0  0  0
   -3.2240   -3.8060    1.2110 C   0  0  0  0  0  0  0  0  0  0  0  0
   -2.6200   -1.8480   -2.9780 C   0  0  0  0  0  0  0  0  0  0  0  0
   -1.7450   -1.6480   -1.9540 C   0  0  0  0  0  0  0  0  0  0  0  0
    1.1730    1.7540    0.4670 C   0  0  0  0  0  0  0  0  0  0  0  0
    2.0370   -0.6400    0.1610 N   0  3  0  0  0  0  0  0  0  0  0  0
    0.5720    2.2620   -0.6970 C   0  0  0  0  0  0  0  0  0  0  0  0
    1.9180    2.6120    1.2860 C   0  0  0  0  0  0  0  0  0  0  0  0
    1.4550    4.4290   -0.2000 C   0  0  0  0  0  0  0  0  0  0  0  0
    2.0620    3.9570    0.9540 C   0  0  0  0  0  0  0  0  0  0  0  0
    0.7120    3.6050   -1.0320 C   0  0  0  0  0  0  0  0  0  0  0  0
    1.5940    5.7320   -0.5250 F   0  0  0  0  0  0  0  0  0  0  0  0
    3.3770   -0.7270    0.8720 C   0  0  0  0  0  0  0  0  0  0  0  0
    2.1850   -0.3990   -1.3340 C   0  0  0  0  0  0  0  0  0  0  0  0
  1  2  2  0  0  0  0
  1  3  1  0  0  0  0
  1 12  1  0  0  0  0
  2  4  1  0  0  0  0
  2  7  1  0  0  0  0
  3  5  2  0  0  0  0
  3  6  1  0  0  0  0
  4 10  2  0  0  0  0
  5 10  1  0  0  0  0
  6  8  1  0  0  0  0
  7 11  1  0  0  0  0
  8  9  1  0  0  0  0
  9 13  1  0  0  0  0
  9 14  1  0  0  0  0
 11 12  2  0  0  0  0
 13 15  1  0  0  0  0
 13 16  2  0  0  0  0
 14 21  1  0  0  0  0
 14 22  1  0  0  0  0
 15 19  2  0  0  0  0
 16 18  1  0  0  0  0
 17 18  2  0  0  0  0
 17 19  1  0  0  0  0
 17 20  1  0  0  0  0
M  CHG  1  14   1
M  END
>  <NScode>
NS-018849034-0000

>  <a_acc>
3

>  <a_don>
1

>  <chiral>
1

>  <opr_nrot>
5

>  <Weight>
316.40399

>  <druglike>
1

>  <lip_druglike>
1

>  <lip_violation>
0

>  <logS>
-4.62116

$$$$
