NS-024167574-0000N-(2-methoxy-5-methylphenyl)-2-[3-(4-methylbenzyl)-1H-1,2,4-...
  MOE2022           3D

 26 28  0  0  0  0  0  0  0  0999 V2000
    0.6220   -1.6640   -1.5320 N   0  0  0  0  0  0  0  0  0  0  0  0
    0.2900   -0.8010   -2.4840 C   0  0  0  0  0  0  0  0  0  0  0  0
   -0.1400   -2.7890   -3.1730 N   0  0  0  0  0  0  0  0  0  0  0  0
    0.3480   -2.8830   -1.9800 C   0  0  0  0  0  0  0  0  0  0  0  0
   -0.1780   -1.4510   -3.4960 N   0  0  0  0  0  0  0  0  0  0  0  0
   -0.1900    1.1720   -1.0290 C   0  0  0  0  0  0  0  0  0  0  0  0
   -2.2620    2.3450   -0.1440 C   0  0  0  0  0  0  0  0  0  0  0  0
    0.4530    0.6870   -2.3050 C   0  0  0  0  0  0  0  0  0  0  0  0
   -1.4130    1.7790   -1.1380 N   0  0  0  0  0  0  0  0  0  0  0  0
   -3.3370    3.1100   -0.6180 C   0  0  0  0  0  0  0  0  0  0  0  0
   -2.0870    2.1640    1.2310 C   0  0  0  0  0  0  0  0  0  0  0  0
    0.3450    0.9920    0.0460 O   0  0  0  0  0  0  0  0  0  0  0  0
    0.5880   -4.1200   -1.1450 C   0  0  0  0  0  0  0  0  0  0  0  0
   -4.2240    3.7040    0.2790 C   0  0  0  0  0  0  0  0  0  0  0  0
   -2.9780    2.7550    2.1270 C   0  0  0  0  0  0  0  0  0  0  0  0
    1.5390   -3.8700    0.0110 C   0  0  0  0  0  0  0  0  0  0  0  0
   -4.0390    3.5250    1.6490 C   0  0  0  0  0  0  0  0  0  0  0  0
    3.3000   -3.3300    2.1160 C   0  0  0  0  0  0  0  0  0  0  0  0
   -3.4890    3.2550   -1.9980 O   0  0  0  0  0  0  0  0  0  0  0  0
    2.9150   -3.9880   -0.1750 C   0  0  0  0  0  0  0  0  0  0  0  0
    1.0490   -3.4820    1.2570 C   0  0  0  0  0  0  0  0  0  0  0  0
    3.7900   -3.7220    0.8730 C   0  0  0  0  0  0  0  0  0  0  0  0
    1.9250   -3.2150    2.3040 C   0  0  0  0  0  0  0  0  0  0  0  0
   -2.7990    2.5730    3.6180 C   0  0  0  0  0  0  0  0  0  0  0  0
    4.2510   -3.0480    3.2580 C   0  0  0  0  0  0  0  0  0  0  0  0
   -4.5540    3.9980   -2.6340 C   0  0  0  0  0  0  0  0  0  0  0  0
  1  2  1  0  0  0  0
  1  4  1  0  0  0  0
  2  5  2  0  0  0  0
  2  8  1  0  0  0  0
  3  4  2  0  0  0  0
  3  5  1  0  0  0  0
  4 13  1  0  0  0  0
  6  8  1  0  0  0  0
  6  9  1  0  0  0  0
  6 12  2  0  0  0  0
  7  9  1  0  0  0  0
  7 10  2  0  0  0  0
  7 11  1  0  0  0  0
 10 14  1  0  0  0  0
 10 19  1  0  0  0  0
 11 15  2  0  0  0  0
 13 16  1  0  0  0  0
 14 17  2  0  0  0  0
 15 17  1  0  0  0  0
 15 24  1  0  0  0  0
 16 20  2  0  0  0  0
 16 21  1  0  0  0  0
 18 22  2  0  0  0  0
 18 23  1  0  0  0  0
 18 25  1  0  0  0  0
 19 26  1  0  0  0  0
 20 22  1  0  0  0  0
 21 23  2  0  0  0  0
M  END
>  <NScode>
NS-024167574-0000

>  <a_acc>
5

>  <a_don>
3

>  <chiral>
0

>  <opr_nrot>
6

>  <Weight>
350.422

>  <druglike>
1

>  <lip_druglike>
1

>  <lip_violation>
0

>  <logS>
-4.47963

$$$$
