NS-019562967-0000
  MOE2022           3D

 24 26  0  0  0  0  0  0  0  0999 V2000
   -0.5500    3.4480    0.2380 C   0  0  0  0  0  0  0  0  0  0  0  0
    0.6370    4.1080   -0.2780 C   0  0  0  0  0  0  0  0  0  0  0  0
   -0.5400    2.1320    0.6110 N   0  0  0  0  0  0  0  0  0  0  0  0
    1.1150    5.2940    0.3080 C   0  0  0  0  0  0  0  0  0  0  0  0
   -1.4740   -6.2060   -0.4320 N   0  0  0  0  0  0  0  0  0  0  0  0
   -1.7190   -4.0670   -0.0120 N   0  0  0  0  0  0  0  0  0  0  0  0
   -0.8980   -5.1440    0.0480 C   0  0  0  0  0  0  0  0  0  0  0  0
    0.5790    1.2700    0.7140 C   0  0  0  0  0  0  0  0  0  0  0  0
    2.2060    5.9280   -0.1560 N   0  0  0  0  0  0  0  0  0  0  0  0
   -1.6440    3.9800    0.3230 O   0  0  0  0  0  0  0  0  0  0  0  0
   -2.7140   -5.7980   -0.8140 C   0  0  0  0  0  0  0  0  0  0  0  0
   -2.8750   -4.4790   -0.5610 C   0  0  0  0  0  0  0  0  0  0  0  0
    0.4710   -0.0410    0.2280 C   0  0  0  0  0  0  0  0  0  0  0  0
    0.3580    6.0000    1.7050 Cl  0  0  0  0  0  0  0  0  0  0  0  0
   -0.7420   -0.4450   -0.3240 O   0  0  0  0  0  0  0  0  0  0  0  0
    1.3310    3.5860   -1.3730 C   0  0  0  0  0  0  0  0  0  0  0  0
   -1.3940   -2.7140    0.4040 C   0  0  0  0  0  0  0  0  0  0  0  0
   -1.0890   -1.7780   -0.7720 C   0  0  0  0  0  0  0  0  0  0  0  0
    2.8610    5.4310   -1.2000 C   0  0  0  0  0  0  0  0  0  0  0  0
    1.7640    1.7050    1.3080 C   0  0  0  0  0  0  0  0  0  0  0  0
    1.5670   -0.9030    0.3000 C   0  0  0  0  0  0  0  0  0  0  0  0
    2.4530    4.2590   -1.8330 C   0  0  0  0  0  0  0  0  0  0  0  0
    2.8520    0.8390    1.3820 C   0  0  0  0  0  0  0  0  0  0  0  0
    2.7560   -0.4570    0.8760 C   0  0  0  0  0  0  0  0  0  0  0  0
  1  2  1  0  0  0  0
  1  3  1  0  0  0  0
  1 10  2  0  0  0  0
  2  4  2  0  0  0  0
  2 16  1  0  0  0  0
  3  8  1  0  0  0  0
  4  9  1  0  0  0  0
  4 14  1  0  0  0  0
  5  7  2  0  0  0  0
  5 11  1  0  0  0  0
  6  7  1  0  0  0  0
  6 12  1  0  0  0  0
  6 17  1  0  0  0  0
  8 13  2  0  0  0  0
  8 20  1  0  0  0  0
  9 19  2  0  0  0  0
 11 12  2  0  0  0  0
 13 15  1  0  0  0  0
 13 21  1  0  0  0  0
 15 18  1  0  0  0  0
 16 22  2  0  0  0  0
 17 18  1  0  0  0  0
 19 22  1  0  0  0  0
 20 23  2  0  0  0  0
 21 24  2  0  0  0  0
 23 24  1  0  0  0  0
M  END
>  <NScode>
NS-019562967-0000

>  <a_acc>
4

>  <a_don>
1

>  <chiral>
0

>  <opr_nrot>
6

>  <Weight>
342.78598

>  <druglike>
1

>  <lip_druglike>
1

>  <lip_violation>
0

>  <logS>
-3.48523

$$$$
