NS-016067425-0000
  MOE2022           3D

 28 30  0  0  0  0  0  0  0  0999 V2000
   -3.0620    0.9720    0.2550 N   0  0  0  0  0  0  0  0  0  0  0  0
   -3.2370    2.2660   -0.2360 C   0  0  0  0  0  0  0  0  0  0  0  0
   -4.3400    0.4090    0.5710 C   0  0  0  0  0  0  0  0  0  0  0  0
   -4.6520    2.5410   -0.2510 C   0  0  0  0  0  0  0  0  0  0  0  0
   -5.3160    1.4280    0.2310 C   0  0  0  0  0  0  0  0  0  0  0  0
    5.5270    0.0850    0.0300 C   0  0  0  0  0  0  0  0  0  0  0  0
    4.5350   -2.0900   -0.4960 C   0  0  0  0  0  0  0  0  0  0  0  0
   -1.7950    0.2480    0.4960 C   0  0  0  0  0  0  0  0  0  0  0  0
    6.7250    0.8740    0.3450 C   0  0  0  0  0  0  0  0  0  0  0  0
    4.6660   -3.5310   -0.7420 C   0  0  0  0  0  0  0  0  0  0  0  0
    3.1450   -0.1190   -0.3210 C   0  0  0  0  0  0  0  0  0  0  0  0
    5.6530   -1.2910   -0.2100 C   0  0  0  0  0  0  0  0  0  0  0  0
    0.7180    0.0280    0.1400 C   0  0  0  0  0  0  0  0  0  0  0  0
   -0.5110    0.8680   -0.0760 C   0  0  0  0  0  0  0  0  0  0  0  0
    1.8840    0.5130   -0.3870 N   0  0  0  0  0  0  0  0  0  0  0  0
   -2.3210    3.0090   -0.5820 O   0  0  0  0  0  0  0  0  0  0  0  0
    3.2740   -1.4880   -0.5510 C   0  0  0  0  0  0  0  0  0  0  0  0
    4.2560    0.6710   -0.0420 C   0  0  0  0  0  0  0  0  0  0  0  0
   -4.5360   -0.8270    1.0840 C   0  0  0  0  0  0  0  0  0  0  0  0
    7.8640    0.4890    0.1570 O   0  0  0  0  0  0  0  0  0  0  0  0
    3.8450   -4.2040   -1.3380 O   0  0  0  0  0  0  0  0  0  0  0  0
    0.7080   -1.0070    0.7720 O   0  0  0  0  0  0  0  0  0  0  0  0
    6.6340    2.1030    0.8970 N   0  0  0  0  0  0  0  0  0  0  0  0
    5.7390   -4.2190   -0.2980 N   0  0  0  0  0  0  0  0  0  0  0  0
   -5.3530    3.6800   -0.6530 C   0  0  0  0  0  0  0  0  0  0  0  0
   -6.7090    1.4240    0.3240 C   0  0  0  0  0  0  0  0  0  0  0  0
   -7.4180    2.5560   -0.0740 C   0  0  0  0  0  0  0  0  0  0  0  0
   -6.7430    3.6820   -0.5620 C   0  0  0  0  0  0  0  0  0  0  0  0
  1  2  1  0  0  0  0
  1  3  1  0  0  0  0
  1  8  1  0  0  0  0
  2  4  1  0  0  0  0
  2 16  2  0  0  0  0
  3  5  1  0  0  0  0
  3 19  2  0  0  0  0
  4  5  2  0  0  0  0
  4 25  1  0  0  0  0
  5 26  1  0  0  0  0
  6  9  1  0  0  0  0
  6 12  2  0  0  0  0
  6 18  1  0  0  0  0
  7 10  1  0  0  0  0
  7 12  1  0  0  0  0
  7 17  2  0  0  0  0
  8 14  1  0  0  0  0
  9 20  2  0  0  0  0
  9 23  1  0  0  0  0
 10 21  2  0  0  0  0
 10 24  1  0  0  0  0
 11 15  1  0  0  0  0
 11 17  1  0  0  0  0
 11 18  2  0  0  0  0
 13 14  1  0  0  0  0
 13 15  1  0  0  0  0
 13 22  2  0  0  0  0
 25 28  2  0  0  0  0
 26 27  2  0  0  0  0
 27 28  1  0  0  0  0
M  END
>  <NScode>
NS-016067425-0000

>  <a_acc>
4

>  <a_don>
3

>  <chiral>
0

>  <opr_nrot>
6

>  <Weight>
378.388

>  <druglike>
1

>  <lip_druglike>
1

>  <lip_violation>
0

>  <logS>
-4.4917898

$$$$
