NS-012742632-0000
  MOE2022           3D

 30 33  0  0  0  0  0  0  0  0999 V2000
   -1.6090   -0.5540    0.9610 C   0  0  0  0  0  0  0  0  0  0  0  0
   -1.5520   -2.0110    0.6660 N   0  0  0  0  0  0  0  0  0  0  0  0
   -0.2620   -2.6480    0.3210 C   0  0  0  0  0  0  0  0  0  0  0  0
    0.9540   -1.7110    0.2510 C   0  0  0  0  0  0  0  0  0  0  0  0
    2.2370   -2.4230   -0.1920 C   0  0  0  0  0  0  0  0  0  0  0  0
    3.4310   -1.4930   -0.2370 C   0  0  0  0  0  0  0  0  0  0  0  0
    3.5450   -0.1500   -0.1400 C   0  0  0  0  0  0  0  0  0  0  0  0
    4.9010    0.1730   -0.2580 C   0  0  0  0  0  0  0  0  0  0  0  0
    5.6000   -0.9340   -0.4250 N   0  0  0  0  0  0  0  0  0  0  0  0
    4.6970   -1.9380   -0.4110 N   0  0  0  0  0  0  0  0  0  0  0  0
    5.4970    1.5120   -0.2110 C   0  0  0  0  0  0  0  0  0  0  0  0
    4.7090    2.6600    0.0060 C   0  0  0  0  0  0  0  0  0  0  0  0
    5.2840    3.9260    0.0510 C   0  0  0  0  0  0  0  0  0  0  0  0
    6.6560    4.0460   -0.1210 C   0  0  0  0  0  0  0  0  0  0  0  0
    7.2170    5.2770   -0.0760 F   0  0  0  0  0  0  0  0  0  0  0  0
    7.4680    2.9430   -0.3370 C   0  0  0  0  0  0  0  0  0  0  0  0
    6.8850    1.6800   -0.3800 C   0  0  0  0  0  0  0  0  0  0  0  0
   -2.7380   -2.6480    0.2530 C   0  0  0  0  0  0  0  0  0  0  0  0
   -2.7840   -4.0770    0.1150 C   0  0  0  0  0  0  0  0  0  0  0  0
   -3.9370   -4.6780   -0.2980 C   0  0  0  0  0  0  0  0  0  0  0  0
   -5.0610   -3.8600   -0.5740 C   0  0  0  0  0  0  0  0  0  0  0  0
   -6.2860   -4.1240   -0.9790 N   0  0  0  0  0  0  0  0  0  0  0  0
   -6.9350   -2.9320   -1.0670 N   0  0  0  0  0  0  0  0  0  0  0  0
   -6.0970   -1.9810   -0.7170 C   0  0  0  0  0  0  0  0  0  0  0  0
   -4.9290   -2.5240   -0.4070 N   0  0  0  0  0  0  0  0  0  0  0  0
   -3.7680   -1.8890    0.0100 N   0  0  0  0  0  0  0  0  0  0  0  0
   -6.2650   -0.4810   -0.6280 C   0  0  0  0  0  0  0  0  0  0  0  0
   -5.4310    0.1840   -1.4520 F   0  0  0  0  0  0  0  0  0  0  0  0
   -6.0510   -0.0050    0.6140 F   0  0  0  0  0  0  0  0  0  0  0  0
   -7.5070   -0.0860   -0.9650 F   0  0  0  0  0  0  0  0  0  0  0  0
  1  2  1  0  0  0  0
  2  3  1  0  0  0  0
  2 18  1  0  0  0  0
  3  4  1  0  0  0  0
  4  5  1  0  0  0  0
  5  6  1  0  0  0  0
  6  7  2  0  0  0  0
  6 10  1  0  0  0  0
  7  8  1  0  0  0  0
  8  9  2  0  0  0  0
  8 11  1  0  0  0  0
  9 10  1  0  0  0  0
 11 12  1  0  0  0  0
 11 17  2  0  0  0  0
 12 13  2  0  0  0  0
 13 14  1  0  0  0  0
 14 15  1  0  0  0  0
 14 16  2  0  0  0  0
 16 17  1  0  0  0  0
 18 19  1  0  0  0  0
 18 26  2  0  0  0  0
 19 20  2  0  0  0  0
 20 21  1  0  0  0  0
 21 22  2  0  0  0  0
 21 25  1  0  0  0  0
 22 23  1  0  0  0  0
 23 24  2  0  0  0  0
 24 25  1  0  0  0  0
 24 27  1  0  0  0  0
 25 26  1  0  0  0  0
 27 28  1  0  0  0  0
 27 29  1  0  0  0  0
 27 30  1  0  0  0  0
M  END
>  <NScode>
NS-012742632-0000

>  <a_acc>
5

>  <a_don>
2

>  <chiral>
0

>  <opr_nrot>
6

>  <Weight>
419.38599

>  <druglike>
1

>  <lip_druglike>
1

>  <lip_violation>
0

>  <logS>
-4.80933

$$$$
