NS-018368248-0000
  MOE2022           3D

 25 26  0  0  0  0  0  0  0  0999 V2000
   -5.0330   -1.4870    1.2390 C   0  0  0  0  0  0  0  0  0  0  0  0
   -5.0860   -0.0330    0.7770 C   0  0  0  0  0  0  0  0  0  0  0  0
   -3.9120    0.6650    0.4440 C   0  0  0  0  0  0  0  0  0  0  0  0
   -1.4760    0.5430    0.9120 C   0  0  0  0  0  0  0  0  0  0  0  0
   -2.6580    0.0030    0.4950 N   0  0  0  0  0  0  0  0  0  0  0  0
    8.5260    1.2490   -0.5590 N   0  3  0  0  0  0  0  0  0  0  0  0
    5.7480    0.1490   -0.1490 N   0  0  0  0  0  0  0  0  0  0  0  0
   -1.3470    1.6890    1.3180 O   0  0  0  0  0  0  0  0  0  0  0  0
   -6.2470   -2.0620    1.3270 F   0  0  0  0  0  0  0  0  0  0  0  0
   -4.4680   -1.6180    2.4490 F   0  0  0  0  0  0  0  0  0  0  0  0
   -4.3140   -2.2700    0.4000 F   0  0  0  0  0  0  0  0  0  0  0  0
   -0.4430   -0.3320    0.8390 N   0  0  0  0  0  0  0  0  0  0  0  0
    7.4230    2.0100    0.1820 C   0  0  0  0  0  0  0  0  0  0  0  0
    8.2010   -0.2470   -0.5860 C   0  0  0  0  0  0  0  0  0  0  0  0
    6.7430   -0.5820   -0.9770 C   0  0  0  0  0  0  0  0  0  0  0  0
    5.9840    1.6190   -0.2220 C   0  0  0  0  0  0  0  0  0  0  0  0
   -6.3080    0.6480    0.6960 C   0  0  0  0  0  0  0  0  0  0  0  0
    4.3740   -0.2030   -0.5610 C   0  0  0  0  0  0  0  0  0  0  0  0
   -3.9650    2.0010    0.0330 C   0  0  0  0  0  0  0  0  0  0  0  0
    9.9200    1.5480   -0.0310 C   0  0  0  0  0  0  0  0  0  0  0  0
    0.9150    0.0230    1.2350 C   0  0  0  0  0  0  0  0  0  0  0  0
    3.3390    0.1190    0.5250 C   0  0  0  0  0  0  0  0  0  0  0  0
    1.9220   -0.3310    0.1410 C   0  0  0  0  0  0  0  0  0  0  0  0
   -6.3590    1.9790    0.2890 C   0  0  0  0  0  0  0  0  0  0  0  0
   -5.1880    2.6530   -0.0410 C   0  0  0  0  0  0  0  0  0  0  0  0
  1  2  1  0  0  0  0
  1  9  1  0  0  0  0
  1 10  1  0  0  0  0
  1 11  1  0  0  0  0
  2  3  2  0  0  0  0
  2 17  1  0  0  0  0
  3  5  1  0  0  0  0
  3 19  1  0  0  0  0
  4  5  1  0  0  0  0
  4  8  2  0  0  0  0
  4 12  1  0  0  0  0
  6 13  1  0  0  0  0
  6 14  1  0  0  0  0
  6 20  1  0  0  0  0
  7 15  1  0  0  0  0
  7 16  1  0  0  0  0
  7 18  1  0  0  0  0
 12 21  1  0  0  0  0
 13 16  1  0  0  0  0
 14 15  1  0  0  0  0
 17 24  2  0  0  0  0
 18 22  1  0  0  0  0
 19 25  2  0  0  0  0
 21 23  1  0  0  0  0
 22 23  1  0  0  0  0
 24 25  1  0  0  0  0
M  CHG  1   6   1
M  END
>  <NScode>
NS-018368248-0000

>  <a_acc>
3

>  <a_don>
2

>  <chiral>
0

>  <opr_nrot>
8

>  <Weight>
358.40799

>  <druglike>
1

>  <lip_druglike>
1

>  <lip_violation>
0

>  <logS>
-2.8329

$$$$
