NS-019111593-0000
  MOE2022           3D

 31 33  0  0  0  0  0  0  0  0999 V2000
    1.9440   -0.4690   -0.9280 C   0  0  0  0  0  0  0  0  0  0  0  0
    2.5680    1.0300   -1.6970 S   0  0  0  0  0  0  0  0  0  0  0  0
    0.5510   -0.4050   -0.6110 C   0  0  0  0  0  0  0  0  0  0  0  0
   -0.0570   -1.5140   -0.0120 N   0  0  0  0  0  0  0  0  0  0  0  0
    2.6620   -1.6060   -0.6350 C   0  0  0  0  0  0  0  0  0  0  0  0
    0.6780   -2.6550    0.3110 C   0  0  0  0  0  0  0  0  0  0  0  0
    2.0040   -2.7000   -0.0030 C   0  0  0  0  0  0  0  0  0  0  0  0
   -1.7960   -0.7130    1.6910 C   0  0  0  0  0  0  0  0  0  0  0  0
   -3.9010    0.3650    0.9280 C   0  0  0  0  0  0  0  0  0  0  0  0
   -2.8880    0.0770    1.8730 N   0  0  0  0  0  0  0  0  0  0  0  0
   -1.5040   -1.3820    0.3490 C   0  0  0  0  0  0  0  0  0  0  0  0
    3.9690    0.8990   -1.9280 O   0  0  0  0  0  0  0  0  0  0  0  0
    1.7790    1.3370   -2.8430 O   0  0  0  0  0  0  0  0  0  0  0  0
    2.3380    2.3110   -0.4400 C   0  0  0  0  0  0  0  0  0  0  0  0
   -0.1710    0.5790   -0.8180 O   0  0  0  0  0  0  0  0  0  0  0  0
   -4.2220    1.7010    0.6590 C   0  0  0  0  0  0  0  0  0  0  0  0
   -4.5830   -0.6690    0.2850 C   0  0  0  0  0  0  0  0  0  0  0  0
   -1.0950   -0.8610    2.6710 O   0  0  0  0  0  0  0  0  0  0  0  0
   -5.2020    2.0020   -0.2860 C   0  0  0  0  0  0  0  0  0  0  0  0
   -5.5640   -0.3680   -0.6580 C   0  0  0  0  0  0  0  0  0  0  0  0
    4.1400   -1.7730   -0.9420 C   0  0  0  0  0  0  0  0  0  0  0  0
   -5.8640    0.9660   -0.9440 C   0  0  0  0  0  0  0  0  0  0  0  0
   -0.0270   -3.8000    1.0120 C   0  0  0  0  0  0  0  0  0  0  0  0
   -3.5440    2.7000    1.3480 O   0  0  0  0  0  0  0  0  0  0  0  0
    3.2720    2.4560    0.5910 C   0  0  0  0  0  0  0  0  0  0  0  0
    1.2540    3.1920   -0.4930 C   0  0  0  0  0  0  0  0  0  0  0  0
   -6.3010   -1.4750   -1.3790 C   0  0  0  0  0  0  0  0  0  0  0  0
   -3.5790    4.1020    1.0020 C   0  0  0  0  0  0  0  0  0  0  0  0
    1.0950    4.1810    0.4740 C   0  0  0  0  0  0  0  0  0  0  0  0
    3.1140    3.4450    1.5580 C   0  0  0  0  0  0  0  0  0  0  0  0
    2.0240    4.3060    1.5010 C   0  0  0  0  0  0  0  0  0  0  0  0
  1  2  1  0  0  0  0
  1  3  1  0  0  0  0
  1  5  2  0  0  0  0
  2 12  2  0  0  0  0
  2 13  2  0  0  0  0
  2 14  1  0  0  0  0
  3  4  1  0  0  0  0
  3 15  2  0  0  0  0
  4  6  1  0  0  0  0
  4 11  1  0  0  0  0
  5  7  1  0  0  0  0
  5 21  1  0  0  0  0
  6  7  2  0  0  0  0
  6 23  1  0  0  0  0
  8 10  1  0  0  0  0
  8 11  1  0  0  0  0
  8 18  2  0  0  0  0
  9 10  1  0  0  0  0
  9 16  2  0  0  0  0
  9 17  1  0  0  0  0
 14 25  1  0  0  0  0
 14 26  2  0  0  0  0
 16 19  1  0  0  0  0
 16 24  1  0  0  0  0
 17 20  2  0  0  0  0
 19 22  2  0  0  0  0
 20 22  1  0  0  0  0
 20 27  1  0  0  0  0
 24 28  1  0  0  0  0
 25 30  2  0  0  0  0
 26 29  1  0  0  0  0
 29 31  2  0  0  0  0
 30 31  1  0  0  0  0
M  END
>  <NScode>
NS-019111593-0000

>  <a_acc>
5

>  <a_don>
1

>  <chiral>
0

>  <opr_nrot>
6

>  <Weight>
440.51999

>  <druglike>
1

>  <lip_druglike>
1

>  <lip_violation>
0

>  <logS>
-5.4287701

$$$$
