NS-014392954-0000
  MOE2022           3D

 20 22  0  0  1  0  0  0  0  0999 V2000
    6.0440   -3.5420   -0.2260 N   0  0  0  0  0  0  0  0  0  0  0  0
    6.8480   -4.5580    0.2420 C   0  0  0  0  0  0  0  0  0  0  0  0
    6.7800   -2.6430   -0.9610 C   0  0  0  0  0  0  0  0  0  0  0  0
    8.2890   -4.3740   -0.2040 C   0  0  3  0  0  0  0  0  0  0  0  0
    8.2310   -3.0410   -1.0030 C   0  0  3  0  0  0  0  0  0  0  0  0
    4.6420   -3.4340    0.0210 C   0  0  0  0  0  0  0  0  0  0  0  0
    6.4200   -5.4650    0.9240 O   0  0  0  0  0  0  0  0  0  0  0  0
    6.2920   -1.6730   -1.4960 O   0  0  0  0  0  0  0  0  0  0  0  0
    3.8070   -4.5190   -0.2630 C   0  0  0  0  0  0  0  0  0  0  0  0
    4.1270   -2.2440    0.5430 C   0  0  0  0  0  0  0  0  0  0  0  0
   10.5120   -3.5700    0.7270 C   0  0  0  0  0  0  0  0  0  0  0  0
    9.2240   -4.3000    1.0320 C   0  0  0  0  0  0  0  0  0  0  0  0
   10.4860   -2.4490   -0.0030 C   0  0  0  0  0  0  0  0  0  0  0  0
    8.7300   -5.5360   -1.1280 C   0  0  0  0  0  0  0  0  0  0  0  0
    9.1690   -1.9120   -0.5130 C   0  0  0  0  0  0  0  0  0  0  0  0
    1.9260   -3.2220    0.5010 C   0  0  0  0  0  0  0  0  0  0  0  0
    2.7600   -2.1410    0.7830 C   0  0  0  0  0  0  0  0  0  0  0  0
    2.4410   -4.4120   -0.0210 C   0  0  0  0  0  0  0  0  0  0  0  0
    0.5810   -3.0600    0.7610 O   0  0  0  0  0  0  0  0  0  0  0  0
   -0.4310   -4.0650    0.5310 C   0  0  0  0  0  0  0  0  0  0  0  0
  1  2  1  0  0  0  0
  1  3  1  0  0  0  0
  1  6  1  0  0  0  0
  2  4  1  0  0  0  0
  2  7  2  0  0  0  0
  3  5  1  0  0  0  0
  3  8  2  0  0  0  0
  4  5  1  0  0  0  0
  4 12  1  0  0  0  0
  4 14  1  0  0  0  0
  5 15  1  0  0  0  0
  6  9  1  0  0  0  0
  6 10  2  0  0  0  0
  9 18  2  0  0  0  0
 10 17  1  0  0  0  0
 11 12  1  0  0  0  0
 11 13  2  0  0  0  0
 13 15  1  0  0  0  0
 16 17  2  0  0  0  0
 16 18  1  0  0  0  0
 16 19  1  0  0  0  0
 19 20  1  0  0  0  0
M  END
>  <NScode>
NS-014392954-0000

>  <a_acc>
3

>  <a_don>
0

>  <chiral>
2

>  <opr_nrot>
2

>  <Weight>
271.31598

>  <druglike>
1

>  <lip_druglike>
1

>  <lip_violation>
0

>  <logS>
-2.2007401

$$$$
