NS-024153634-0000N-(2,5-difluorophenyl)-3-[2-(4-fluorophenyl)imidazo[1,2-a]py...
  MOE2022           3D

 24 26  0  0  0  0  0  0  0  0999 V2000
   -1.7460    1.4160    3.2350 S   0  0  0  0  0  0  0  0  0  0  0  0
   -0.0720    1.2950    2.6020 C   0  0  0  0  0  0  0  0  0  0  0  0
    1.7110    1.3500    1.1190 C   0  0  0  0  0  0  0  0  0  0  0  0
    1.2370    0.6650    3.5500 S   0  0  0  0  0  0  0  0  0  0  0  0
    2.3280    0.8440    2.2240 C   0  0  0  0  0  0  0  0  0  0  0  0
    0.3470    1.6090    1.3370 C   0  0  0  0  0  0  0  0  0  0  0  0
    3.8370    1.0710   -0.1670 N   0  0  0  0  0  0  0  0  0  0  0  0
   -2.6760    1.2040    1.9280 N   0  0  0  0  0  0  0  0  0  0  0  0
    2.4390    1.5750   -0.1880 C   0  0  0  0  0  0  0  0  0  0  0  0
    4.4650    0.5870   -1.2530 C   0  0  0  0  0  0  0  0  0  0  0  0
   -1.9210    2.7510    3.7400 O   0  0  0  0  0  0  0  0  0  0  0  0
   -1.9470    0.3470    4.1750 O   0  5  0  0  0  0  0  0  0  0  0  0
    3.7810    0.4540    2.2700 C   0  0  0  0  0  0  0  0  0  0  0  0
    4.5440    1.1560    1.1360 C   0  0  0  0  0  0  0  0  0  0  0  0
   -3.5170   -0.7880   -1.0170 C   0  0  0  0  0  0  0  0  0  0  0  0
   -2.6880    0.1690    1.0830 C   0  0  0  0  0  0  0  0  0  0  0  0
   -3.4980    0.2330   -0.0780 C   0  0  0  0  0  0  0  0  0  0  0  0
   -2.7320   -1.9350   -0.8290 C   0  0  0  0  0  0  0  0  0  0  0  0
    5.6240    0.1950   -1.2100 O   0  0  0  0  0  0  0  0  0  0  0  0
   -1.9430   -2.0260    0.3210 C   0  0  0  0  0  0  0  0  0  0  0  0
   -1.9190   -1.0110    1.2600 C   0  0  0  0  0  0  0  0  0  0  0  0
    3.7380    0.5280   -2.5880 C   0  0  0  0  0  0  0  0  0  0  0  0
   -4.4020   -0.6410   -2.2380 C   0  0  0  0  0  0  0  0  0  0  0  0
   -2.7250   -3.0710   -1.8310 C   0  0  0  0  0  0  0  0  0  0  0  0
  1  2  1  0  0  0  0
  1  8  2  0  0  0  0
  1 11  2  0  0  0  0
  1 12  1  0  0  0  0
  2  4  1  0  0  0  0
  2  6  2  0  0  0  0
  3  5  2  0  0  0  0
  3  6  1  0  0  0  0
  3  9  1  0  0  0  0
  4  5  1  0  0  0  0
  5 13  1  0  0  0  0
  7  9  1  0  0  0  0
  7 10  1  0  0  0  0
  7 14  1  0  0  0  0
  8 16  1  0  0  0  0
 10 19  2  0  0  0  0
 10 22  1  0  0  0  0
 13 14  1  0  0  0  0
 15 17  2  0  0  0  0
 15 18  1  0  0  0  0
 15 23  1  0  0  0  0
 16 17  1  0  0  0  0
 16 21  2  0  0  0  0
 18 20  2  0  0  0  0
 18 24  1  0  0  0  0
 20 21  1  0  0  0  0
M  CHG  1  12  -1
M  END
>  <NScode>
NS-024153634-0000

>  <a_acc>
3

>  <a_don>
1

>  <chiral>
0

>  <opr_nrot>
3

>  <Weight>
364.48999

>  <druglike>
1

>  <lip_druglike>
1

>  <lip_violation>
0

>  <logS>
-4.3438601

$$$$
