NS-012787213-0000
  MOE2022           3D

 22 24  0  0  1  0  0  0  0  0999 V2000
    1.2940    5.1040    1.0760 C   0  0  0  0  0  0  0  0  0  0  0  0
    1.5300    4.1970   -0.0230 O   0  0  0  0  0  0  0  0  0  0  0  0
    1.7050    2.8360    0.1080 C   0  0  0  0  0  0  0  0  0  0  0  0
    1.8500    2.0990   -1.0620 C   0  0  0  0  0  0  0  0  0  0  0  0
    2.0250    0.7210   -0.9890 C   0  0  0  0  0  0  0  0  0  0  0  0
    2.0580    0.0750    0.2500 C   0  0  0  0  0  0  0  0  0  0  0  0
    1.9150    0.8280    1.4190 C   0  0  0  0  0  0  0  0  0  0  0  0
    1.7360    2.2070    1.3530 C   0  0  0  0  0  0  0  0  0  0  0  0
    2.2580   -1.4320    0.3380 C   0  0  3  0  0  0  0  0  0  0  0  0
    3.7370   -1.8200    0.2510 C   0  0  0  0  0  0  0  0  0  0  0  0
    3.7570   -3.1780   -0.4360 C   0  0  0  0  0  0  0  0  0  0  0  0
    2.4950   -3.1910   -1.2940 C   0  0  0  0  0  0  0  0  0  0  0  0
    1.5860   -2.1880   -0.7280 N   0  0  0  0  0  0  0  0  0  0  0  0
    0.2030   -2.3080   -0.8540 C   0  0  0  0  0  0  0  0  0  0  0  0
   -0.6820   -1.5790   -0.0560 C   0  0  0  0  0  0  0  0  0  0  0  0
   -2.0520   -1.7270   -0.2370 C   0  0  0  0  0  0  0  0  0  0  0  0
   -2.4760   -2.6250   -1.2240 C   0  0  0  0  0  0  0  0  0  0  0  0
   -1.5370   -3.3160   -1.9760 C   0  0  0  0  0  0  0  0  0  0  0  0
   -0.2300   -3.1570   -1.7920 N   0  0  0  0  0  0  0  0  0  0  0  0
   -2.9960   -0.9710    0.5900 C   0  0  0  0  0  0  0  0  0  0  0  0
   -2.7440   -0.5380    1.7000 O   0  0  0  0  0  0  0  0  0  0  0  0
   -4.2390   -0.6930    0.1430 N   0  0  0  0  0  0  0  0  0  0  0  0
  1  2  1  0  0  0  0
  2  3  1  0  0  0  0
  3  4  1  0  0  0  0
  3  8  2  0  0  0  0
  4  5  2  0  0  0  0
  5  6  1  0  0  0  0
  6  7  2  0  0  0  0
  6  9  1  0  0  0  0
  7  8  1  0  0  0  0
  9 10  1  0  0  0  0
  9 13  1  0  0  0  0
 10 11  1  0  0  0  0
 11 12  1  0  0  0  0
 12 13  1  0  0  0  0
 13 14  1  0  0  0  0
 14 15  1  0  0  0  0
 14 19  2  0  0  0  0
 15 16  2  0  0  0  0
 16 17  1  0  0  0  0
 16 20  1  0  0  0  0
 17 18  2  0  0  0  0
 18 19  1  0  0  0  0
 20 21  2  0  0  0  0
 20 22  1  0  0  0  0
M  END
>  <NScode>
NS-012787213-0000

>  <a_acc>
3

>  <a_don>
1

>  <chiral>
1

>  <opr_nrot>
5

>  <Weight>
297.358

>  <druglike>
1

>  <lip_druglike>
1

>  <lip_violation>
0

>  <logS>
-2.9881899

$$$$
