NS-021776440-0000
  MOE2022           3D

 16 18  0  0  0  0  0  0  0  0999 V2000
    2.5730    1.0240    0.1080 N   0  0  0  0  0  0  0  0  0  0  0  0
    1.7250   -0.0250    0.3470 N   0  0  0  0  0  0  0  0  0  0  0  0
    3.8640    0.6070    0.0660 C   0  0  0  0  0  0  0  0  0  0  0  0
    3.8370   -0.7210    0.2940 C   0  0  0  0  0  0  0  0  0  0  0  0
    2.5030   -1.0720    0.4550 C   0  0  0  0  0  0  0  0  0  0  0  0
    2.1040    2.4130   -0.0670 C   0  0  0  0  0  0  0  0  0  0  0  0
    1.9200   -2.4360    0.7280 C   0  0  0  0  0  0  0  0  0  0  0  0
    5.1020   -1.5540    0.3200 C   0  0  0  0  0  0  0  0  0  0  0  0
    5.1020    1.4490   -0.1560 C   0  0  0  0  0  0  0  0  0  0  0  0
    0.4280   -2.3930    0.5920 N   0  3  0  0  0  0  0  0  0  0  0  0
    1.3260    2.9930    1.1220 C   0  0  0  0  0  0  0  0  0  0  0  0
    1.1860    2.6330   -1.2700 C   0  0  0  0  0  0  0  0  0  0  0  0
    6.3510   -0.6700    0.5110 C   0  0  0  0  0  0  0  0  0  0  0  0
    6.3240    0.5530   -0.4310 C   0  0  0  0  0  0  0  0  0  0  0  0
    0.3550    3.8730   -0.9400 C   0  0  0  0  0  0  0  0  0  0  0  0
    0.0860    3.7110    0.5640 C   0  0  0  0  0  0  0  0  0  0  0  0
  1  2  1  0  0  0  0
  1  3  1  0  0  0  0
  1  6  1  0  0  0  0
  2  5  2  0  0  0  0
  3  4  2  0  0  0  0
  3  9  1  0  0  0  0
  4  5  1  0  0  0  0
  4  8  1  0  0  0  0
  5  7  1  0  0  0  0
  6 11  1  0  0  0  0
  6 12  1  0  0  0  0
  7 10  1  0  0  0  0
  8 13  1  0  0  0  0
  9 14  1  0  0  0  0
 11 16  1  0  0  0  0
 12 15  1  0  0  0  0
 13 14  1  0  0  0  0
 15 16  1  0  0  0  0
M  CHG  1  10   1
M  END
>  <NScode>
NS-021776440-0000

>  <a_acc>
2

>  <a_don>
1

>  <chiral>
0

>  <opr_nrot>
4

>  <Weight>
219.332

>  <druglike>
1

>  <lip_druglike>
1

>  <lip_violation>
0

>  <logS>
-1.5775

$$$$
