NS-042266316-0000
  MOE2022           3D

 16 17  0  0  1  0  0  0  0  0999 V2000
    0.4660    0.2120    0.0980 C   0  0  0  0  0  0  0  0  0  0  0  0
    1.6910    0.9920    0.0150 O   0  0  0  0  0  0  0  0  0  0  0  0
    2.8910    0.4160    0.1460 C   0  0  0  0  0  0  0  0  0  0  0  0
    2.9990   -0.7910    0.3560 O   0  0  0  0  0  0  0  0  0  0  0  0
    4.1120    1.3110    0.0390 C   0  0  0  0  0  0  0  0  0  0  0  0
    5.4360    0.5770    0.2940 C   0  0  1  0  0  0  0  0  0  0  0  0
    5.5660   -0.5160   -0.6450 O   0  0  0  0  0  0  0  0  0  0  0  0
    6.6970    1.4530    0.2410 C   0  0  0  0  0  0  0  0  0  0  0  0
    6.9000    2.7990    0.2120 C   0  0  0  0  0  0  0  0  0  0  0  0
    5.9550    3.9820    0.2140 C   0  0  0  0  0  0  0  0  0  0  0  0
    8.2650    3.0200    0.1800 N   0  3  0  0  0  0  0  0  0  0  0  0
    8.8890    1.8400    0.1810 C   0  0  0  0  0  0  0  0  0  0  0  0
   10.5060    1.2880    0.1370 S   0  0  0  0  0  0  0  0  0  0  0  0
    9.8920   -0.3420    0.1550 C   0  0  0  0  0  0  0  0  0  0  0  0
    8.5350   -0.3980    0.1980 C   0  0  0  0  0  0  0  0  0  0  0  0
    7.9780    0.8820    0.2230 N   0  0  0  0  0  0  0  0  0  0  0  0
  1  2  1  0  0  0  0
  2  3  1  0  0  0  0
  3  4  2  0  0  0  0
  3  5  1  0  0  0  0
  5  6  1  0  0  0  0
  6  7  1  0  0  0  0
  6  8  1  0  0  0  0
  8  9  2  0  0  0  0
  8 16  1  0  0  0  0
  9 10  1  0  0  0  0
  9 11  1  0  0  0  0
 11 12  2  0  0  0  0
 12 13  1  0  0  0  0
 12 16  1  0  0  0  0
 13 14  1  0  0  0  0
 14 15  2  0  0  0  0
 15 16  1  0  0  0  0
M  CHG  1  11   1
M  END
>  <NScode>
NS-042266316-0000

>  <a_acc>
3

>  <a_don>
1

>  <chiral>
1

>  <opr_nrot>
3

>  <Weight>
240.283

>  <druglike>
1

>  <lip_druglike>
1

>  <lip_violation>
0

>  <logS>
-1.62612

$$$$
