NS-014898245-0000
  MOE2022           3D

 27 29  0  0  0  0  0  0  0  0999 V2000
    0.6320   -0.1550    1.8890 N   0  0  0  0  0  0  0  0  0  0  0  0
    1.3020   -1.2430    2.3490 C   0  0  0  0  0  0  0  0  0  0  0  0
    1.6380   -1.1050    3.5870 N   0  0  0  0  0  0  0  0  0  0  0  0
    0.5900    0.6150    2.9020 C   0  0  0  0  0  0  0  0  0  0  0  0
    1.1890    0.0760    3.9430 O   0  0  0  0  0  0  0  0  0  0  0  0
   -1.5200    3.5460    1.7850 C   0  0  0  0  0  0  0  0  0  0  0  0
   -2.3000    3.8700    0.5840 C   0  0  0  0  0  0  0  0  0  0  0  0
    1.6020   -2.4220    1.5310 C   0  0  0  0  0  0  0  0  0  0  0  0
   -0.8630    2.3550    1.8670 N   0  0  0  0  0  0  0  0  0  0  0  0
    1.2700   -2.4520    0.1680 C   0  0  0  0  0  0  0  0  0  0  0  0
    1.5510   -3.5660   -0.6130 C   0  0  0  0  0  0  0  0  0  0  0  0
   -2.7330    2.8730   -0.3050 C   0  0  0  0  0  0  0  0  0  0  0  0
   -2.6290    5.2030    0.3080 C   0  0  0  0  0  0  0  0  0  0  0  0
    2.1760   -4.6900   -0.0410 C   0  0  0  0  0  0  0  0  0  0  0  0
   -1.4030    4.2990    2.7440 O   0  0  0  0  0  0  0  0  0  0  0  0
   -0.0290    1.9940    3.0170 C   0  0  0  0  0  0  0  0  0  0  0  0
    2.2280   -3.5510    2.0870 C   0  0  0  0  0  0  0  0  0  0  0  0
   -3.4580    3.2030   -1.4470 C   0  0  0  0  0  0  0  0  0  0  0  0
   -3.3610    5.5390   -0.8260 C   0  0  0  0  0  0  0  0  0  0  0  0
    2.5120   -4.6730    1.3140 C   0  0  0  0  0  0  0  0  0  0  0  0
   -3.7690    4.5360   -1.7020 C   0  0  0  0  0  0  0  0  0  0  0  0
    1.1720   -3.4580   -1.9470 O   0  0  0  0  0  0  0  0  0  0  0  0
    2.4570   -5.8130   -0.8080 O   0  0  0  0  0  0  0  0  0  0  0  0
   -3.9280    2.1230   -2.3970 C   0  0  0  0  0  0  0  0  0  0  0  0
   -3.6990    6.9850   -1.1150 C   0  0  0  0  0  0  0  0  0  0  0  0
    1.3890   -4.4120   -3.0100 C   0  0  0  0  0  0  0  0  0  0  0  0
    3.0730   -7.0320   -0.3360 C   0  0  0  0  0  0  0  0  0  0  0  0
  1  2  1  0  0  0  0
  1  4  2  0  0  0  0
  2  3  2  0  0  0  0
  2  8  1  0  0  0  0
  3  5  1  0  0  0  0
  4  5  1  0  0  0  0
  4 16  1  0  0  0  0
  6  7  1  0  0  0  0
  6  9  1  0  0  0  0
  6 15  2  0  0  0  0
  7 12  2  0  0  0  0
  7 13  1  0  0  0  0
  8 10  1  0  0  0  0
  8 17  2  0  0  0  0
  9 16  1  0  0  0  0
 10 11  2  0  0  0  0
 11 14  1  0  0  0  0
 11 22  1  0  0  0  0
 12 18  1  0  0  0  0
 13 19  2  0  0  0  0
 14 20  2  0  0  0  0
 14 23  1  0  0  0  0
 17 20  1  0  0  0  0
 18 21  2  0  0  0  0
 18 24  1  0  0  0  0
 19 21  1  0  0  0  0
 19 25  1  0  0  0  0
 22 26  1  0  0  0  0
 23 27  1  0  0  0  0
M  END
>  <NScode>
NS-014898245-0000

>  <a_acc>
5

>  <a_don>
1

>  <chiral>
0

>  <opr_nrot>
6

>  <Weight>
367.405

>  <druglike>
1

>  <lip_druglike>
1

>  <lip_violation>
0

>  <logS>
-6.1463599

$$$$
