NS-015346538-0000
  MOE2022           3D

 29 32  0  0  1  0  0  0  0  0999 V2000
    2.9620   -2.1980   -0.7270 N   0  0  0  0  0  0  0  0  0  0  0  0
    4.2510   -2.5940   -0.9900 C   0  0  0  0  0  0  0  0  0  0  0  0
    2.5290   -0.8590   -0.8580 C   0  0  0  0  0  0  0  0  0  0  0  0
    2.1590   -3.2690   -0.2980 N   0  0  0  0  0  0  0  0  0  0  0  0
    4.3010   -4.0700   -0.7340 C   0  0  1  0  0  0  0  0  0  0  0  0
    2.2300   -0.0910    0.1520 N   0  0  0  0  0  0  0  0  0  0  0  0
    2.8790   -4.3050   -0.2910 C   0  0  0  0  0  0  0  0  0  0  0  0
    4.6420   -4.8440   -1.9520 N   0  0  0  0  0  0  0  0  0  0  0  0
    1.8380    1.1460   -0.3100 C   0  0  0  0  0  0  0  0  0  0  0  0
    2.3670   -0.1860   -2.4330 S   0  0  0  0  0  0  0  0  0  0  0  0
    1.8540    1.2600   -1.6750 C   0  0  0  0  0  0  0  0  0  0  0  0
    5.3070   -5.9100   -1.9570 N   0  0  0  0  0  0  0  0  0  0  0  0
    5.1470   -1.8390   -1.3330 O   0  0  0  0  0  0  0  0  0  0  0  0
    5.8240   -6.5270   -0.7760 C   0  0  0  0  0  0  0  0  0  0  0  0
    1.4370    2.2180    0.6060 C   0  0  0  0  0  0  0  0  0  0  0  0
    6.8370   -5.9680    0.0310 C   0  0  0  0  0  0  0  0  0  0  0  0
    1.0830    1.9270    1.9340 C   0  0  0  0  0  0  0  0  0  0  0  0
    1.3910    3.5620    0.1950 C   0  0  0  0  0  0  0  0  0  0  0  0
    0.6460    4.2540    2.3820 C   0  0  0  0  0  0  0  0  0  0  0  0
    2.3420   -5.6510    0.1310 C   0  0  0  0  0  0  0  0  0  0  0  0
    0.6910    2.9300    2.8130 C   0  0  0  0  0  0  0  0  0  0  0  0
    0.9990    4.5680    1.0700 C   0  0  0  0  0  0  0  0  0  0  0  0
    0.1550    5.5070    3.4730 Cl  0  0  0  0  0  0  0  0  0  0  0  0
    7.4860   -4.7810   -0.2480 O   0  0  0  0  0  0  0  0  0  0  0  0
    5.2720   -7.7560   -0.4070 C   0  0  0  0  0  0  0  0  0  0  0  0
    7.2370   -6.6040    1.2030 C   0  0  0  0  0  0  0  0  0  0  0  0
    7.8500   -4.3000   -1.5680 C   0  0  0  0  0  0  0  0  0  0  0  0
    5.6850   -8.3970    0.7570 C   0  0  0  0  0  0  0  0  0  0  0  0
    6.6610   -7.8180    1.5650 C   0  0  0  0  0  0  0  0  0  0  0  0
  1  2  1  0  0  0  0
  1  3  1  0  0  0  0
  1  4  1  0  0  0  0
  2  5  1  0  0  0  0
  2 13  2  0  0  0  0
  3  6  2  0  0  0  0
  3 10  1  0  0  0  0
  4  7  2  0  0  0  0
  5  7  1  0  0  0  0
  5  8  1  0  0  0  0
  6  9  1  0  0  0  0
  7 20  1  0  0  0  0
  8 12  2  0  0  0  0
  9 11  2  0  0  0  0
  9 15  1  0  0  0  0
 10 11  1  0  0  0  0
 12 14  1  0  0  0  0
 14 16  1  0  0  0  0
 14 25  2  0  0  0  0
 15 17  2  0  0  0  0
 15 18  1  0  0  0  0
 16 24  1  0  0  0  0
 16 26  2  0  0  0  0
 17 21  1  0  0  0  0
 18 22  2  0  0  0  0
 19 21  2  0  0  0  0
 19 22  1  0  0  0  0
 19 23  1  0  0  0  0
 24 27  1  0  0  0  0
 25 28  1  0  0  0  0
 26 29  1  0  0  0  0
 28 29  2  0  0  0  0
M  END
>  <NScode>
NS-015346538-0000

>  <a_acc>
5

>  <a_don>
1

>  <chiral>
0

>  <opr_nrot>
5

>  <Weight>
425.89999

>  <druglike>
1

>  <lip_druglike>
1

>  <lip_violation>
0

>  <logS>
-6.7737098

$$$$
