NS-019733430-0000
  MOE2022           3D

 21 22  0  0  1  0  0  0  0  0999 V2000
    0.0630    0.3270    1.8830 S   0  0  0  0  0  0  0  0  0  0  0  0
    1.9760    0.9310    0.1530 C   0  0  3  0  0  0  0  0  0  0  0  0
    2.5980    0.6240   -1.1980 C   0  0  0  0  0  0  0  0  0  0  0  0
    0.5980    0.4590    0.3450 N   0  0  0  0  0  0  0  0  0  0  0  0
    3.2490    1.6840   -1.6970 O   0  0  0  0  0  0  0  0  0  0  0  0
    3.1830    2.7990   -0.7830 C   0  0  0  0  0  0  0  0  0  0  0  0
    2.0870    2.4460    0.2300 C   0  0  0  0  0  0  0  0  0  0  0  0
    0.2760    1.5640    2.5430 O   0  0  0  0  0  0  0  0  0  0  0  0
    0.6720   -0.8190    2.4550 O   0  0  0  0  0  0  0  0  0  0  0  0
   -1.6960    0.0400    1.7520 C   0  0  0  0  0  0  0  0  0  0  0  0
    2.5230   -0.4350   -1.8180 O   0  0  0  0  0  0  0  0  0  0  0  0
   -2.1590   -0.8840    0.6390 C   0  0  0  0  0  0  0  0  0  0  0  0
   -2.9090   -0.3900   -0.4270 C   0  0  0  0  0  0  0  0  0  0  0  0
   -3.3120   -1.2470   -1.4460 C   0  0  0  0  0  0  0  0  0  0  0  0
   -4.0540   -0.7000   -2.4680 O   0  0  0  0  0  0  0  0  0  0  0  0
    2.8570    4.0660   -1.5730 C   0  0  0  0  0  0  0  0  0  0  0  0
    4.5480    2.9360   -0.1020 C   0  0  0  0  0  0  0  0  0  0  0  0
   -2.2190   -3.0900   -0.3560 C   0  0  0  0  0  0  0  0  0  0  0  0
   -1.8150   -2.2370    0.6690 C   0  0  0  0  0  0  0  0  0  0  0  0
   -2.9700   -2.6000   -1.4190 C   0  0  0  0  0  0  0  0  0  0  0  0
   -4.5560   -1.4350   -3.6060 C   0  0  0  0  0  0  0  0  0  0  0  0
  1  4  1  0  0  0  0
  1  8  2  0  0  0  0
  1  9  2  0  0  0  0
  1 10  1  0  0  0  0
  2  3  1  0  0  0  0
  2  4  1  0  0  0  0
  2  7  1  0  0  0  0
  3  5  1  0  0  0  0
  3 11  2  0  0  0  0
  5  6  1  0  0  0  0
  6  7  1  0  0  0  0
  6 16  1  0  0  0  0
  6 17  1  0  0  0  0
 10 12  1  0  0  0  0
 12 13  2  0  0  0  0
 12 19  1  0  0  0  0
 13 14  1  0  0  0  0
 14 15  1  0  0  0  0
 14 20  2  0  0  0  0
 15 21  1  0  0  0  0
 18 19  2  0  0  0  0
 18 20  1  0  0  0  0
M  END
>  <NScode>
NS-019733430-0000

>  <a_acc>
4

>  <a_don>
1

>  <chiral>
1

>  <opr_nrot>
4

>  <Weight>
313.37399

>  <druglike>
1

>  <lip_druglike>
1

>  <lip_violation>
0

>  <logS>
-2.6304801

$$$$
