NS-021792945-0000
  MOE2022           3D

 21 24  0  0  1  0  0  0  0  0999 V2000
   -2.6530    3.5390    1.7920 S   0  0  0  0  0  0  0  0  0  0  0  0
   -3.7280    4.5930    1.1110 N   0  0  0  0  0  0  0  0  0  0  0  0
   -1.9230    7.2770   -1.6260 C   0  0  0  0  0  0  0  0  0  0  0  0
   -2.3980    6.3830   -0.7530 C   0  0  0  0  0  0  0  0  0  0  0  0
   -4.1060    4.5400   -0.2940 C   0  0  3  0  0  0  0  0  0  0  0  0
   -3.6730    6.0090    1.4250 C   0  0  3  0  0  0  0  0  0  0  0  0
   -3.3760    1.9100    1.4970 C   0  0  0  0  0  0  0  0  0  0  0  0
   -2.4370    6.6520    0.7460 C   0  0  0  0  0  0  0  0  0  0  0  0
   -2.9410    5.0300   -1.1940 C   0  0  0  0  0  0  0  0  0  0  0  0
   -1.5990    7.6950   -3.0290 C   0  0  0  0  0  0  0  0  0  0  0  0
   -1.3140    8.6130   -1.9320 C   0  0  0  0  0  0  0  0  0  0  0  0
   -1.4100    3.6120    1.1060 O   0  0  0  0  0  0  0  0  0  0  0  0
   -2.6170    3.7760    3.1940 O   0  0  0  0  0  0  0  0  0  0  0  0
   -4.9820    6.5190    0.8050 C   0  0  0  0  0  0  0  0  0  0  0  0
   -5.2790    5.5290   -0.3310 C   0  0  0  0  0  0  0  0  0  0  0  0
   -2.9110    1.1000    0.4500 C   0  0  0  0  0  0  0  0  0  0  0  0
   -4.4000    1.4320    2.3280 C   0  0  0  0  0  0  0  0  0  0  0  0
   -4.4850   -0.5960    1.0620 C   0  0  0  0  0  0  0  0  0  0  0  0
   -4.9620    0.1760    2.1120 C   0  0  0  0  0  0  0  0  0  0  0  0
   -3.4680   -0.1570    0.2260 C   0  0  0  0  0  0  0  0  0  0  0  0
   -5.0290   -1.8150    0.8460 F   0  0  0  0  0  0  0  0  0  0  0  0
  1  2  1  0  0  0  0
  1  7  1  0  0  0  0
  1 12  2  0  0  0  0
  1 13  2  0  0  0  0
  2  5  1  0  0  0  0
  2  6  1  0  0  0  0
  3  4  2  0  0  0  0
  3 10  1  0  0  0  0
  3 11  1  0  0  0  0
  4  8  1  0  0  0  0
  4  9  1  0  0  0  0
  5  9  1  0  0  0  0
  5 15  1  0  0  0  0
  6  8  1  0  0  0  0
  6 14  1  0  0  0  0
  7 16  1  0  0  0  0
  7 17  2  0  0  0  0
 10 11  1  0  0  0  0
 14 15  1  0  0  0  0
 16 20  2  0  0  0  0
 17 19  1  0  0  0  0
 18 19  2  0  0  0  0
 18 20  1  0  0  0  0
 18 21  1  0  0  0  0
M  END
>  <NScode>
NS-021792945-0000

>  <a_acc>
2

>  <a_don>
0

>  <chiral>
2

>  <opr_nrot>
4

>  <Weight>
307.38901

>  <druglike>
1

>  <lip_druglike>
1

>  <lip_violation>
0

>  <logS>
-3.12306

$$$$
