NS-023402294-0000
  MOE2022           3D

 23 23  0  0  1  0  0  0  0  0999 V2000
   -1.7350    6.1650    0.7010 C   0  0  0  0  0  0  0  0  0  0  0  0
   -2.0760    5.1930   -0.2840 O   0  0  0  0  0  0  0  0  0  0  0  0
   -0.9450    4.5030   -0.8350 C   0  0  0  0  0  0  0  0  0  0  0  0
   -0.4260    3.2070   -0.1130 C   0  0  3  0  0  0  0  0  0  0  0  0
   -1.4790    2.7320    0.9050 C   0  0  0  0  0  0  0  0  0  0  0  0
    0.9750    3.4840    0.4590 C   0  0  0  0  0  0  0  0  0  0  0  0
    1.0030    4.6120    1.4580 C   0  0  0  0  0  0  0  0  0  0  0  0
    0.6840    4.3360    2.6310 O   0  5  0  0  0  0  0  0  0  0  0  0
    1.3440    5.7320    1.0260 O   0  0  0  0  0  0  0  0  0  0  0  0
   -0.2870    2.1960   -1.1680 N   0  0  0  0  0  0  0  0  0  0  0  0
    0.0870    0.9170   -1.2020 C   0  0  0  0  0  0  0  0  0  0  0  0
    0.1640    0.4230   -2.3190 O   0  0  0  0  0  0  0  0  0  0  0  0
    0.3300    0.0460    0.0540 C   0  0  0  0  0  0  0  0  0  0  0  0
    1.5430   -0.9030   -0.0850 C   0  0  0  0  0  0  0  0  0  0  0  0
    1.2750   -2.1290   -0.9750 C   0  0  0  0  0  0  0  0  0  0  0  0
    0.0660   -2.8540   -0.5670 N   0  0  0  0  0  0  0  0  0  0  0  0
   -1.1230   -1.9910   -0.5230 C   0  0  0  0  0  0  0  0  0  0  0  0
   -0.9130   -0.7950    0.4190 C   0  0  0  0  0  0  0  0  0  0  0  0
    0.1880   -3.8780    0.3480 C   0  0  0  0  0  0  0  0  0  0  0  0
    1.2210   -4.0360    0.9990 O   0  0  0  0  0  0  0  0  0  0  0  0
   -0.8930   -4.7240    0.5080 N   0  0  0  0  0  0  0  0  0  0  0  0
   -0.8520   -5.6640    1.6340 C   0  0  0  0  0  0  0  0  0  0  0  0
   -1.5960   -5.2260   -0.6850 C   0  0  0  0  0  0  0  0  0  0  0  0
  1  2  1  0  0  0  0
  2  3  1  0  0  0  0
  3  4  1  0  0  0  0
  4  5  1  0  0  0  0
  4  6  1  0  0  0  0
  4 10  1  0  0  0  0
  6  7  1  0  0  0  0
  7  8  1  0  0  0  0
  7  9  2  0  0  0  0
 10 11  1  0  0  0  0
 11 12  2  0  0  0  0
 11 13  1  0  0  0  0
 13 14  1  0  0  0  0
 13 18  1  0  0  0  0
 14 15  1  0  0  0  0
 15 16  1  0  0  0  0
 16 17  1  0  0  0  0
 16 19  1  0  0  0  0
 17 18  1  0  0  0  0
 19 20  2  0  0  0  0
 19 21  1  0  0  0  0
 21 22  1  0  0  0  0
 21 23  1  0  0  0  0
M  CHG  1   8  -1
M  END
>  <NScode>
NS-023402294-0000

>  <a_acc>
4

>  <a_don>
3

>  <chiral>
1

>  <opr_nrot>
8

>  <Weight>
329.397

>  <druglike>
1

>  <lip_druglike>
1

>  <lip_violation>
0

>  <logS>
-0.22138999

$$$$
