NS-017008770-0000
  MOE2022           3D

 27 29  0  0  0  0  0  0  0  0999 V2000
   -5.6240    5.0850    0.7940 N   0  0  0  0  0  0  0  0  0  0  0  0
   -5.9990    4.0260    0.0650 C   0  0  0  0  0  0  0  0  0  0  0  0
   -7.0480    4.4050   -0.6570 N   0  3  0  0  0  0  0  0  0  0  0  0
   -6.4440    6.1760    0.4870 C   0  0  0  0  0  0  0  0  0  0  0  0
   -7.3340    5.7350   -0.4210 C   0  0  0  0  0  0  0  0  0  0  0  0
   -5.2230    2.4920    0.0630 S   0  0  0  0  0  0  0  0  0  0  0  0
   -4.4310    5.0850    1.6850 C   0  0  0  0  0  0  0  0  0  0  0  0
   -3.1750    5.7140    1.0830 C   0  0  0  0  0  0  0  0  0  0  0  0
   -7.6010    1.2260   -0.6800 C   0  0  0  0  0  0  0  0  0  0  0  0
   -6.1600    1.4480   -1.1060 C   0  0  0  0  0  0  0  0  0  0  0  0
   -2.2520    4.9150    0.5370 N   0  0  0  0  0  0  0  0  0  0  0  0
   -8.6880    1.6550   -1.4570 C   0  0  0  0  0  0  0  0  0  0  0  0
   -3.0560    6.9340    1.0160 O   0  0  0  0  0  0  0  0  0  0  0  0
   -1.0490    5.4300   -0.1030 C   0  0  0  0  0  0  0  0  0  0  0  0
   -8.4500    2.5160   -2.9460 Cl  0  0  0  0  0  0  0  0  0  0  0  0
   -6.2880    7.5830    1.0430 C   0  0  0  0  0  0  0  0  0  0  0  0
   -0.2480    4.3010   -0.7070 C   0  0  0  0  0  0  0  0  0  0  0  0
   -5.3050    8.3330    0.3040 O   0  0  0  0  0  0  0  0  0  0  0  0
   -7.8520    0.5640    0.5220 C   0  0  0  0  0  0  0  0  0  0  0  0
   -9.9970    1.4170   -1.0330 C   0  0  0  0  0  0  0  0  0  0  0  0
   -0.4330    3.9410   -2.0410 C   0  0  0  0  0  0  0  0  0  0  0  0
    0.6670    3.5940    0.0730 C   0  0  0  0  0  0  0  0  0  0  0  0
   -9.1580    0.3330    0.9460 C   0  0  0  0  0  0  0  0  0  0  0  0
  -10.2290    0.7590    0.1680 C   0  0  0  0  0  0  0  0  0  0  0  0
    0.2910    2.8880   -2.5910 C   0  0  0  0  0  0  0  0  0  0  0  0
    1.3910    2.5400   -0.4770 C   0  0  0  0  0  0  0  0  0  0  0  0
    1.2030    2.1870   -1.8090 C   0  0  0  0  0  0  0  0  0  0  0  0
  1  2  1  0  0  0  0
  1  4  1  0  0  0  0
  1  7  1  0  0  0  0
  2  3  2  0  0  0  0
  2  6  1  0  0  0  0
  3  5  1  0  0  0  0
  4  5  2  0  0  0  0
  4 16  1  0  0  0  0
  6 10  1  0  0  0  0
  7  8  1  0  0  0  0
  8 11  1  0  0  0  0
  8 13  2  0  0  0  0
  9 10  1  0  0  0  0
  9 12  2  0  0  0  0
  9 19  1  0  0  0  0
 11 14  1  0  0  0  0
 12 15  1  0  0  0  0
 12 20  1  0  0  0  0
 14 17  1  0  0  0  0
 16 18  1  0  0  0  0
 17 21  2  0  0  0  0
 17 22  1  0  0  0  0
 19 23  2  0  0  0  0
 20 24  2  0  0  0  0
 21 25  1  0  0  0  0
 22 26  2  0  0  0  0
 23 24  1  0  0  0  0
 25 27  2  0  0  0  0
 26 27  1  0  0  0  0
M  CHG  1   3   1
M  END
>  <NScode>
NS-017008770-0000

>  <a_acc>
3

>  <a_don>
2

>  <chiral>
0

>  <opr_nrot>
8

>  <Weight>
401.918

>  <druglike>
1

>  <lip_druglike>
1

>  <lip_violation>
0

>  <logS>
-5.8728499

$$$$
