NS-022026843-0000
  MOE2022           3D

 25 27  0  0  1  0  0  0  0  0999 V2000
   -3.9050    2.5840   -1.1230 C   0  0  0  0  0  0  0  0  0  0  0  0
   -3.2100    1.3880   -1.6410 N   0  0  0  0  0  0  0  0  0  0  0  0
   -4.0770    0.3600   -2.2580 C   0  0  0  0  0  0  0  0  0  0  0  0
   -4.8420   -0.4550   -1.2380 C   0  0  0  0  0  0  0  0  0  0  0  0
   -4.3950   -1.5980   -0.5870 C   0  0  0  0  0  0  0  0  0  0  0  0
   -5.3940   -1.9640    0.2280 C   0  0  0  0  0  0  0  0  0  0  0  0
   -6.3840   -1.0850    0.0750 O   0  0  0  0  0  0  0  0  0  0  0  0
   -6.0300   -0.1610   -0.8280 N   0  0  0  0  0  0  0  0  0  0  0  0
   -1.9200    1.1110   -1.3970 C   0  0  0  0  0  0  0  0  0  0  0  0
   -1.4170    0.0410   -1.7320 O   0  0  0  0  0  0  0  0  0  0  0  0
   -1.0530    2.1490   -0.6780 C   0  0  0  0  0  0  0  0  0  0  0  0
    0.4170    1.7270   -0.4970 C   0  0  3  0  0  0  0  0  0  0  0  0
    0.9740    1.4620   -1.7760 O   0  0  0  0  0  0  0  0  0  0  0  0
    1.2470    2.8850    0.1090 C   0  0  0  0  0  0  0  0  0  0  0  0
    2.5010    2.4180    0.8900 C   0  0  0  0  0  0  0  0  0  0  0  0
    3.0420    1.0600    0.4190 C   0  0  0  0  0  0  0  0  0  0  0  0
    2.0250   -0.0690    0.4990 N   0  3  3  0  0  0  0  0  0  0  0  0
    2.3140   -1.1290   -0.5330 C   0  0  0  0  0  0  0  0  0  0  0  0
    3.6840   -1.7450   -0.3910 C   0  0  0  0  0  0  0  0  0  0  0  0
    4.7030   -1.3940   -1.2770 C   0  0  0  0  0  0  0  0  0  0  0  0
    5.9740   -1.9420   -1.1350 C   0  0  0  0  0  0  0  0  0  0  0  0
    6.2340   -2.8420   -0.1080 C   0  0  0  0  0  0  0  0  0  0  0  0
    5.2210   -3.1970    0.7770 C   0  0  0  0  0  0  0  0  0  0  0  0
    3.9490   -2.6520    0.6360 C   0  0  0  0  0  0  0  0  0  0  0  0
    0.5840    0.4560    0.3930 C   0  0  0  0  0  0  0  0  0  0  0  0
  1  2  1  0  0  0  0
  2  3  1  0  0  0  0
  2  9  1  0  0  0  0
  3  4  1  0  0  0  0
  4  5  1  0  0  0  0
  4  8  2  0  0  0  0
  5  6  2  0  0  0  0
  6  7  1  0  0  0  0
  7  8  1  0  0  0  0
  9 10  2  0  0  0  0
  9 11  1  0  0  0  0
 11 12  1  0  0  0  0
 12 13  1  0  0  0  0
 12 14  1  0  0  0  0
 12 25  1  0  0  0  0
 14 15  1  0  0  0  0
 15 16  1  0  0  0  0
 16 17  1  0  0  0  0
 17 18  1  0  0  0  0
 17 25  1  0  0  0  0
 18 19  1  0  0  0  0
 19 20  1  0  0  0  0
 19 24  2  0  0  0  0
 20 21  2  0  0  0  0
 21 22  1  0  0  0  0
 22 23  2  0  0  0  0
 23 24  1  0  0  0  0
M  CHG  1  17   1
M  END
>  <NScode>
NS-022026843-0000

>  <a_acc>
4

>  <a_don>
1

>  <chiral>
1

>  <opr_nrot>
8

>  <Weight>
343.427

>  <druglike>
1

>  <lip_druglike>
1

>  <lip_violation>
0

>  <logS>
-2.12184

$$$$
