NS-013922192-0000
  MOE2022           3D

 35 38  0  0  0  0  0  0  0  0999 V2000
    4.9670   -2.2040    0.6620 S   0  0  0  0  0  0  0  0  0  0  0  0
    3.9890   -2.7470   -0.5590 N   0  0  0  0  0  0  0  0  0  0  0  0
    4.9890   -0.4080    0.4810 C   0  0  0  0  0  0  0  0  0  0  0  0
   -4.5660    2.9710    0.2120 C   0  0  0  0  0  0  0  0  0  0  0  0
    6.2820   -2.7000    0.4470 O   0  0  0  0  0  0  0  0  0  0  0  0
    4.3620   -2.5290    1.9080 O   0  0  0  0  0  0  0  0  0  0  0  0
    4.2080    0.4040    1.3080 C   0  0  0  0  0  0  0  0  0  0  0  0
    2.4820    3.4470    1.6320 C   0  0  0  0  0  0  0  0  0  0  0  0
    3.4650    2.5820    2.0100 N   0  0  0  0  0  0  0  0  0  0  0  0
   -5.4440    1.8050    0.0960 C   0  0  0  0  0  0  0  0  0  0  0  0
   -3.1100    2.8590    0.1140 C   0  0  0  0  0  0  0  0  0  0  0  0
    4.2510    1.7870    1.1580 C   0  0  0  0  0  0  0  0  0  0  0  0
   -5.0690    4.0720    0.3950 O   0  0  0  0  0  0  0  0  0  0  0  0
    1.9900    4.0950    2.5300 O   0  0  0  0  0  0  0  0  0  0  0  0
    1.7900   -4.5900   -0.0430 O   0  0  0  0  0  0  0  0  0  0  0  0
   -2.2850    3.7240    0.8520 C   0  0  0  0  0  0  0  0  0  0  0  0
   -5.0510    0.5450    0.5890 C   0  0  0  0  0  0  0  0  0  0  0  0
   -6.7100    1.9370   -0.5050 C   0  0  0  0  0  0  0  0  0  0  0  0
   -2.5040    1.9030   -0.7230 C   0  0  0  0  0  0  0  0  0  0  0  0
    4.0610   -4.1840   -0.8840 C   0  0  0  0  0  0  0  0  0  0  0  0
    2.5760   -2.3190   -0.5710 C   0  0  0  0  0  0  0  0  0  0  0  0
    1.0380    2.5510   -0.2120 O   0  0  0  0  0  0  0  0  0  0  0  0
    2.0140    3.5680    0.1890 C   0  0  0  0  0  0  0  0  0  0  0  0
   -0.3220    2.6760   -0.0660 C   0  0  0  0  0  0  0  0  0  0  0  0
   -7.1280   -0.3910   -0.1440 C   0  0  0  0  0  0  0  0  0  0  0  0
   -1.1200    1.8090   -0.8070 C   0  0  0  0  0  0  0  0  0  0  0  0
   -0.9000    3.6340    0.7710 C   0  0  0  0  0  0  0  0  0  0  0  0
   -5.8920   -0.5570    0.4660 C   0  0  0  0  0  0  0  0  0  0  0  0
   -7.5540    0.8380   -0.6300 C   0  0  0  0  0  0  0  0  0  0  0  0
   -7.9480   -1.4660   -0.2660 F   0  0  0  0  0  0  0  0  0  0  0  0
    5.8140    0.1940   -0.4770 C   0  0  0  0  0  0  0  0  0  0  0  0
    3.1460   -5.0380    0.0210 C   0  0  0  0  0  0  0  0  0  0  0  0
    1.6750   -3.2130    0.3140 C   0  0  0  0  0  0  0  0  0  0  0  0
    5.8590    1.5810   -0.6110 C   0  0  0  0  0  0  0  0  0  0  0  0
    5.0800    2.3860    0.2100 C   0  0  0  0  0  0  0  0  0  0  0  0
  1  2  1  0  0  0  0
  1  3  1  0  0  0  0
  1  5  2  0  0  0  0
  1  6  2  0  0  0  0
  2 20  1  0  0  0  0
  2 21  1  0  0  0  0
  3  7  2  0  0  0  0
  3 31  1  0  0  0  0
  4 10  1  0  0  0  0
  4 11  1  0  0  0  0
  4 13  2  0  0  0  0
  7 12  1  0  0  0  0
  8  9  1  0  0  0  0
  8 14  2  0  0  0  0
  8 23  1  0  0  0  0
  9 12  1  0  0  0  0
 10 17  2  0  0  0  0
 10 18  1  0  0  0  0
 11 16  1  0  0  0  0
 11 19  2  0  0  0  0
 12 35  2  0  0  0  0
 15 32  1  0  0  0  0
 15 33  1  0  0  0  0
 16 27  2  0  0  0  0
 17 28  1  0  0  0  0
 18 29  2  0  0  0  0
 19 26  1  0  0  0  0
 20 32  1  0  0  0  0
 21 33  1  0  0  0  0
 22 23  1  0  0  0  0
 22 24  1  0  0  0  0
 24 26  2  0  0  0  0
 24 27  1  0  0  0  0
 25 28  2  0  0  0  0
 25 29  1  0  0  0  0
 25 30  1  0  0  0  0
 31 34  2  0  0  0  0
 34 35  1  0  0  0  0
M  END
>  <NScode>
NS-013922192-0000

>  <a_acc>
6

>  <a_don>
1

>  <chiral>
0

>  <opr_nrot>
9

>  <Weight>
498.53101

>  <druglike>
1

>  <lip_druglike>
1

>  <lip_violation>
0

>  <logS>
-6.0045199

$$$$
