NS-022253621-0000
  MOE2022           3D

 16 16  0  0  0  0  0  0  0  0999 V2000
    1.7430   -0.5450    0.8700 C   0  0  0  0  0  0  0  0  0  0  0  0
    2.7530   -1.9780    1.2800 S   0  0  0  0  0  0  0  0  0  0  0  0
    2.4550    0.9750    0.4710 S   0  0  0  0  0  0  0  0  0  0  0  0
    0.9010    1.7190    0.2630 C   0  0  0  0  0  0  0  0  0  0  0  0
   -0.1120    0.8070    0.5110 C   0  0  0  0  0  0  0  0  0  0  0  0
    0.3740   -0.4620    0.8550 C   0  0  0  0  0  0  0  0  0  0  0  0
    0.8240    3.1220   -0.1210 C   0  0  0  0  0  0  0  0  0  0  0  0
    3.9610   -1.5310    1.8730 O   0  0  0  0  0  0  0  0  0  0  0  0
    1.9530   -2.8860    2.0250 O   0  0  0  0  0  0  0  0  0  0  0  0
    3.1090   -2.6470   -0.1770 N   0  0  0  0  0  0  0  0  0  0  0  0
    1.7980    3.8320   -0.3390 O   0  0  0  0  0  0  0  0  0  0  0  0
   -0.3980    3.6950   -0.2580 O   0  0  0  0  0  0  0  0  0  0  0  0
   -1.5970    1.1030    0.4400 C   0  0  0  0  0  0  0  0  0  0  0  0
    2.0500   -3.2460   -0.9850 C   0  0  0  0  0  0  0  0  0  0  0  0
   -0.5540    5.0820   -0.6360 C   0  0  0  0  0  0  0  0  0  0  0  0
   -2.0280    5.4670   -0.7200 C   0  0  0  0  0  0  0  0  0  0  0  0
  1  2  1  0  0  0  0
  1  3  1  0  0  0  0
  1  6  2  0  0  0  0
  2  8  2  0  0  0  0
  2  9  2  0  0  0  0
  2 10  1  0  0  0  0
  3  4  1  0  0  0  0
  4  5  2  0  0  0  0
  4  7  1  0  0  0  0
  5  6  1  0  0  0  0
  5 13  1  0  0  0  0
  7 11  2  0  0  0  0
  7 12  1  0  0  0  0
 10 14  1  0  0  0  0
 12 15  1  0  0  0  0
 15 16  1  0  0  0  0
M  END
>  <NScode>
NS-022253621-0000

>  <a_acc>
3

>  <a_don>
1

>  <chiral>
0

>  <opr_nrot>
3

>  <Weight>
263.33801

>  <druglike>
1

>  <lip_druglike>
1

>  <lip_violation>
0

>  <logS>
-2.2102001

$$$$
