NS-042421992-0000
  MOE2022           3D

 19 21  0  0  1  0  0  0  0  0999 V2000
   -1.0680   -5.2640   -2.1320 O   0  0  0  0  0  0  0  0  0  0  0  0
   -1.1600   -4.3050   -1.0330 C   0  0  0  0  0  0  0  0  0  0  0  0
   -0.3920   -3.0070   -1.2780 C   0  0  0  0  0  0  0  0  0  0  0  0
    0.2230   -2.8580   -2.3320 O   0  0  0  0  0  0  0  0  0  0  0  0
   -0.4000   -2.0220   -0.3510 N   0  0  0  0  0  0  0  0  0  0  0  0
   -1.2300   -2.0210    0.8670 C   0  0  0  0  0  0  0  0  0  0  0  0
   -2.2870   -0.9080    0.8070 C   0  0  0  0  0  0  0  0  0  0  0  0
   -1.6620    0.4700    0.5210 C   0  0  0  0  0  0  0  0  0  0  0  0
   -0.7140    0.4370   -0.7000 C   0  0  3  0  0  0  0  0  0  0  0  0
    0.2860   -0.7320   -0.6070 C   0  0  0  0  0  0  0  0  0  0  0  0
   -0.0570    1.7200   -0.9490 N   0  0  0  0  0  0  0  0  0  0  0  0
   -0.2540    2.4760   -2.0700 C   0  0  0  0  0  0  0  0  0  0  0  0
    0.4260    3.5750   -2.0520 N   0  0  0  0  0  0  0  0  0  0  0  0
    1.1140    3.5550   -0.8590 C   0  0  0  0  0  0  0  0  0  0  0  0
    2.0020    4.4890   -0.3100 C   0  0  0  0  0  0  0  0  0  0  0  0
    2.5750    4.2340    0.9280 C   0  0  0  0  0  0  0  0  0  0  0  0
    2.2720    3.0470    1.6300 C   0  0  0  0  0  0  0  0  0  0  0  0
    1.3950    2.1170    1.0960 C   0  0  0  0  0  0  0  0  0  0  0  0
    0.8270    2.3990   -0.1570 C   0  0  0  0  0  0  0  0  0  0  0  0
  1  2  1  0  0  0  0
  2  3  1  0  0  0  0
  3  4  2  0  0  0  0
  3  5  1  0  0  0  0
  5  6  1  0  0  0  0
  5 10  1  0  0  0  0
  6  7  1  0  0  0  0
  7  8  1  0  0  0  0
  8  9  1  0  0  0  0
  9 10  1  0  0  0  0
  9 11  1  0  0  0  0
 11 12  1  0  0  0  0
 11 19  1  0  0  0  0
 12 13  2  0  0  0  0
 13 14  1  0  0  0  0
 14 15  1  0  0  0  0
 14 19  2  0  0  0  0
 15 16  2  0  0  0  0
 16 17  1  0  0  0  0
 17 18  2  0  0  0  0
 18 19  1  0  0  0  0
M  END
>  <NScode>
NS-042421992-0000

>  <a_acc>
3

>  <a_don>
1

>  <chiral>
1

>  <opr_nrot>
4

>  <Weight>
259.30899

>  <druglike>
1

>  <lip_druglike>
1

>  <lip_violation>
0

>  <logS>
-2.11501

$$$$
