NS-006570472-0000
  MOE2022           3D

 19 20  0  0  0  0  0  0  0  0999 V2000
    0.0440   -0.0310   -0.8290 S   0  0  0  0  0  0  0  0  0  0  0  0
   -0.7750    1.2940    0.1020 C   0  0  0  0  0  0  0  0  0  0  0  0
   -0.2510    2.5910    0.0150 C   0  0  0  0  0  0  0  0  0  0  0  0
    0.8090   -0.9030    0.3090 N   0  0  0  0  0  0  0  0  0  0  0  0
   -1.9170    1.0790    0.8990 C   0  0  0  0  0  0  0  0  0  0  0  0
   -0.8380    3.6530    0.6970 C   0  0  0  0  0  0  0  0  0  0  0  0
    1.0140    0.5590   -1.6950 O   0  0  0  0  0  0  0  0  0  0  0  0
   -0.9500   -0.8410   -1.4550 O   0  0  0  0  0  0  0  0  0  0  0  0
   -1.9750    3.4310    1.4840 C   0  0  0  0  0  0  0  0  0  0  0  0
   -2.5050    2.1480    1.5780 C   0  0  0  0  0  0  0  0  0  0  0  0
    3.0890   -4.2240   -0.3800 N   0  0  0  0  0  0  0  0  0  0  0  0
    1.5170   -1.9410    0.0320 C   0  0  0  0  0  0  0  0  0  0  0  0
   -0.1410    5.2320    0.5510 Cl  0  0  0  0  0  0  0  0  0  0  0  0
   -2.7390    4.7250    2.3480 Cl  0  0  0  0  0  0  0  0  0  0  0  0
    2.1490   -2.6360    1.1180 C   0  0  0  0  0  0  0  0  0  0  0  0
    1.7400   -2.4850   -1.2890 C   0  0  0  0  0  0  0  0  0  0  0  0
   -2.5460   -0.2970    1.0450 C   0  0  0  0  0  0  0  0  0  0  0  0
    2.5060   -3.5950   -1.4690 C   0  0  0  0  0  0  0  0  0  0  0  0
    2.9100   -3.7440    0.9070 C   0  0  0  0  0  0  0  0  0  0  0  0
  1  2  1  0  0  0  0
  1  4  1  0  0  0  0
  1  7  2  0  0  0  0
  1  8  2  0  0  0  0
  2  3  1  0  0  0  0
  2  5  2  0  0  0  0
  3  6  2  0  0  0  0
  4 12  2  0  0  0  0
  5 10  1  0  0  0  0
  5 17  1  0  0  0  0
  6  9  1  0  0  0  0
  6 13  1  0  0  0  0
  9 10  2  0  0  0  0
  9 14  1  0  0  0  0
 11 18  1  0  0  0  0
 11 19  1  0  0  0  0
 12 15  1  0  0  0  0
 12 16  1  0  0  0  0
 15 19  2  0  0  0  0
 16 18  2  0  0  0  0
M  END
>  <NScode>
NS-006570472-0000

>  <a_acc>
3

>  <a_don>
1

>  <chiral>
0

>  <opr_nrot>
2

>  <Weight>
317.19598

>  <druglike>
1

>  <lip_druglike>
1

>  <lip_violation>
0

>  <logS>
-3.41763

$$$$
