NS-017350325-0000
  MOE2022           3D

 32 34  0  0  1  0  0  0  0  0999 V2000
   -1.8050   -0.9230   -0.2840 S   0  0  0  0  0  0  0  0  0  0  0  0
    6.7440   -3.2130    0.7210 S   0  0  0  0  0  0  0  0  0  0  0  0
   -3.1610    0.0630    0.3830 C   0  0  0  0  0  0  0  0  0  0  0  0
   -4.3030    0.3050   -0.3880 C   0  0  0  0  0  0  0  0  0  0  0  0
   -5.3450    1.0710    0.1210 C   0  0  0  0  0  0  0  0  0  0  0  0
    5.7500   -1.7880    0.2280 C   0  0  0  0  0  0  0  0  0  0  0  0
    2.8360    2.3530    0.1380 N   0  0  0  0  0  0  0  0  0  0  0  0
    1.7990    2.0030    0.8900 C   0  0  0  0  0  0  0  0  0  0  0  0
   -1.0630   -1.4660    0.7990 O   0  0  0  0  0  0  0  0  0  0  0  0
   -2.3370   -1.8370   -1.2300 O   0  0  0  0  0  0  0  0  0  0  0  0
    6.8820   -4.0770   -0.3950 O   0  0  0  0  0  0  0  0  0  0  0  0
    7.9280   -2.7430    1.3440 O   0  0  0  0  0  0  0  0  0  0  0  0
   -0.8740    0.1640   -1.0950 N   0  0  0  0  0  0  0  0  0  0  0  0
   -5.2600    1.6050    1.4150 C   0  0  0  0  0  0  0  0  0  0  0  0
    5.8380   -3.9610    1.8420 N   0  0  0  0  0  0  0  0  0  0  0  0
    3.3870    1.6310   -0.9940 C   0  0  3  0  0  0  0  0  0  0  0  0
    4.2140    0.4340   -0.5540 C   0  0  0  0  0  0  0  0  0  0  0  0
   -6.4080    1.2900   -0.7270 O   0  0  0  0  0  0  0  0  0  0  0  0
    0.9150    0.8180    0.5310 C   0  0  0  0  0  0  0  0  0  0  0  0
   -6.2300    2.4060    1.9760 O   0  0  0  0  0  0  0  0  0  0  0  0
   -3.0920    0.5890    1.6800 C   0  0  0  0  0  0  0  0  0  0  0  0
    1.5070    2.7100    1.8390 O   0  0  0  0  0  0  0  0  0  0  0  0
    5.9270   -0.5480    0.8450 C   0  0  0  0  0  0  0  0  0  0  0  0
    4.8050   -1.8990   -0.7960 C   0  0  0  0  0  0  0  0  0  0  0  0
   -4.1330    1.3630    2.1910 C   0  0  0  0  0  0  0  0  0  0  0  0
    5.1640    0.5510    0.4600 C   0  0  0  0  0  0  0  0  0  0  0  0
    4.0430   -0.8000   -1.1810 C   0  0  0  0  0  0  0  0  0  0  0  0
   -0.2130    1.2670   -0.3980 C   0  0  0  0  0  0  0  0  0  0  0  0
   -8.2700    2.2260    0.5970 C   0  0  0  0  0  0  0  0  0  0  0  0
   -7.7830    1.1270   -0.3430 C   0  0  0  0  0  0  0  0  0  0  0  0
   -7.6300    2.0840    1.9750 C   0  0  0  0  0  0  0  0  0  0  0  0
    4.2070    2.5830   -1.8620 C   0  0  0  0  0  0  0  0  0  0  0  0
  1  3  1  0  0  0  0
  1  9  2  0  0  0  0
  1 10  2  0  0  0  0
  1 13  1  0  0  0  0
  2  6  1  0  0  0  0
  2 11  2  0  0  0  0
  2 12  2  0  0  0  0
  2 15  1  0  0  0  0
  3  4  1  0  0  0  0
  3 21  2  0  0  0  0
  4  5  2  0  0  0  0
  5 14  1  0  0  0  0
  5 18  1  0  0  0  0
  6 23  2  0  0  0  0
  6 24  1  0  0  0  0
  7  8  1  0  0  0  0
  7 16  1  0  0  0  0
  8 19  1  0  0  0  0
  8 22  2  0  0  0  0
 13 28  1  0  0  0  0
 14 20  1  0  0  0  0
 14 25  2  0  0  0  0
 16 17  1  0  0  0  0
 16 32  1  0  0  0  0
 17 26  2  0  0  0  0
 17 27  1  0  0  0  0
 18 30  1  0  0  0  0
 19 28  1  0  0  0  0
 20 31  1  0  0  0  0
 21 25  1  0  0  0  0
 23 26  1  0  0  0  0
 24 27  2  0  0  0  0
 29 30  1  0  0  0  0
 29 31  1  0  0  0  0
M  END
>  <NScode>
NS-017350325-0000

>  <a_acc>
7

>  <a_don>
3

>  <chiral>
1

>  <opr_nrot>
9

>  <Weight>
483.56601

>  <druglike>
1

>  <lip_druglike>
1

>  <lip_violation>
0

>  <logS>
-4.0504398

$$$$
