NS-050091817-0000
  MOE2022           3D

 19 20  0  0  0  0  0  0  0  0999 V2000
   -1.2910    3.7460    1.7550 C   0  0  0  0  0  0  0  0  0  0  0  0
   -0.8390    3.0390    0.5780 N   0  0  0  0  0  0  0  0  0  0  0  0
    0.2510    2.2910    0.4800 C   0  0  0  0  0  0  0  0  0  0  0  0
    0.2580    1.8180   -0.7840 C   0  0  0  0  0  0  0  0  0  0  0  0
   -0.8450    2.2960   -1.4250 N   0  0  0  0  0  0  0  0  0  0  0  0
   -1.5110    3.0470   -0.5750 N   0  0  0  0  0  0  0  0  0  0  0  0
    1.5300    0.7220   -1.4680 S   0  0  0  0  0  0  0  0  0  0  0  0
    1.0570    0.1460   -2.6970 O   0  0  0  0  0  0  0  0  0  0  0  0
    2.7520    1.4770   -1.5470 O   0  5  0  0  0  0  0  0  0  0  0  0
    1.7100   -0.4340   -0.3470 N   0  0  0  0  0  0  0  0  0  0  0  0
    0.8970   -1.3570    0.1850 C   0  0  0  0  0  0  0  0  0  0  0  0
    1.4450   -2.2210    1.1720 C   0  0  0  0  0  0  0  0  0  0  0  0
    0.6790   -3.2100    1.7760 C   0  0  0  0  0  0  0  0  0  0  0  0
    1.3990   -4.2340    2.9770 Cl  0  0  0  0  0  0  0  0  0  0  0  0
   -0.6630   -3.3680    1.4100 C   0  0  0  0  0  0  0  0  0  0  0  0
   -1.4080   -4.3110    1.9830 F   0  0  0  0  0  0  0  0  0  0  0  0
   -1.2490   -2.5530    0.4520 C   0  0  0  0  0  0  0  0  0  0  0  0
   -0.4820   -1.5700   -0.1430 C   0  0  0  0  0  0  0  0  0  0  0  0
   -1.1070   -0.8250   -1.0410 F   0  0  0  0  0  0  0  0  0  0  0  0
  1  2  1  0  0  0  0
  2  3  1  0  0  0  0
  2  6  1  0  0  0  0
  3  4  2  0  0  0  0
  4  5  1  0  0  0  0
  4  7  1  0  0  0  0
  5  6  2  0  0  0  0
  7  8  2  0  0  0  0
  7  9  1  0  0  0  0
  7 10  2  0  0  0  0
 10 11  1  0  0  0  0
 11 12  1  0  0  0  0
 11 18  2  0  0  0  0
 12 13  2  0  0  0  0
 13 14  1  0  0  0  0
 13 15  1  0  0  0  0
 15 16  1  0  0  0  0
 15 17  2  0  0  0  0
 17 18  1  0  0  0  0
 18 19  1  0  0  0  0
M  CHG  1   9  -1
M  END
>  <NScode>
NS-050091817-0000

>  <a_acc>
4

>  <a_don>
1

>  <chiral>
0

>  <opr_nrot>
2

>  <Weight>
308.69598

>  <druglike>
1

>  <lip_druglike>
1

>  <lip_violation>
0

>  <logS>
-2.5325401

$$$$
