NS-016041813-0000
  MOE2022           3D

 25 27  0  0  0  0  0  0  0  0999 V2000
   -1.4870    0.8970   -1.0070 C   0  0  0  0  0  0  0  0  0  0  0  0
   -0.6140   -5.3870    0.8330 C   0  0  0  0  0  0  0  0  0  0  0  0
   -1.4290    1.8650   -0.0140 N   0  0  0  0  0  0  0  0  0  0  0  0
   -0.9990   -6.8190    1.1480 C   0  0  0  0  0  0  0  0  0  0  0  0
   -0.0660   -7.9600    0.8310 C   0  0  0  0  0  0  0  0  0  0  0  0
   -1.3220   -7.7820    0.0330 C   0  0  0  0  0  0  0  0  0  0  0  0
   -1.6430   -4.5780    0.4310 N   0  0  0  0  0  0  0  0  0  0  0  0
    2.0550    4.8220    0.6780 C   0  0  0  0  0  0  0  0  0  0  0  0
   -1.5240   -0.5190   -0.6510 C   0  0  0  0  0  0  0  0  0  0  0  0
   -1.2720    3.2820   -0.3830 C   0  0  0  0  0  0  0  0  0  0  0  0
    2.8720    4.4980   -0.4190 C   0  0  0  0  0  0  0  0  0  0  0  0
   -1.4950    1.2730   -2.1760 O   0  0  0  0  0  0  0  0  0  0  0  0
    0.5180   -4.9670    0.9380 O   0  0  0  0  0  0  0  0  0  0  0  0
    0.7160    4.4340    0.6840 C   0  0  0  0  0  0  0  0  0  0  0  0
    0.1800    3.7240   -0.3920 C   0  0  0  0  0  0  0  0  0  0  0  0
   -0.4360   -1.3510   -0.9530 C   0  0  0  0  0  0  0  0  0  0  0  0
   -2.6450   -1.0700   -0.0090 C   0  0  0  0  0  0  0  0  0  0  0  0
   -1.5680   -3.2210    0.0580 C   0  0  0  0  0  0  0  0  0  0  0  0
    2.3340    3.7910   -1.4930 C   0  0  0  0  0  0  0  0  0  0  0  0
    2.6810    5.6980    2.0360 Cl  0  0  0  0  0  0  0  0  0  0  0  0
    0.9960    3.4050   -1.4770 C   0  0  0  0  0  0  0  0  0  0  0  0
    4.5420    4.9610   -0.4650 Cl  0  0  0  0  0  0  0  0  0  0  0  0
   -2.6700   -2.4130    0.3450 C   0  0  0  0  0  0  0  0  0  0  0  0
   -0.4520   -2.6940   -0.6020 C   0  0  0  0  0  0  0  0  0  0  0  0
   -1.0960    1.5090    1.3750 C   0  0  0  0  0  0  0  0  0  0  0  0
  1  3  1  0  0  0  0
  1  9  1  0  0  0  0
  1 12  2  0  0  0  0
  2  4  1  0  0  0  0
  2  7  1  0  0  0  0
  2 13  2  0  0  0  0
  3 10  1  0  0  0  0
  3 25  1  0  0  0  0
  4  5  1  0  0  0  0
  4  6  1  0  0  0  0
  5  6  1  0  0  0  0
  7 18  1  0  0  0  0
  8 11  1  0  0  0  0
  8 14  2  0  0  0  0
  8 20  1  0  0  0  0
  9 16  1  0  0  0  0
  9 17  2  0  0  0  0
 10 15  1  0  0  0  0
 11 19  2  0  0  0  0
 11 22  1  0  0  0  0
 14 15  1  0  0  0  0
 15 21  2  0  0  0  0
 16 24  2  0  0  0  0
 17 23  1  0  0  0  0
 18 23  2  0  0  0  0
 18 24  1  0  0  0  0
 19 21  1  0  0  0  0
M  END
>  <NScode>
NS-016041813-0000

>  <a_acc>
2

>  <a_don>
1

>  <chiral>
0

>  <opr_nrot>
5

>  <Weight>
377.271

>  <druglike>
1

>  <lip_druglike>
1

>  <lip_violation>
0

>  <logS>
-5.1724501

$$$$
