NS-042481098-0000
  MOE2022           3D

 31 35  0  0  1  0  0  0  0  0999 V2000
   -0.4890   -3.5600    1.7310 C   0  0  0  0  0  0  0  0  0  0  0  0
   -1.4650   -2.6320    0.9980 C   0  0  3  0  0  0  0  0  0  0  0  0
   -0.9620   -1.1780    1.0360 N   0  3  3  0  0  0  0  0  0  0  0  0
   -2.0060   -0.1630    0.6740 C   0  0  0  0  0  0  0  0  0  0  0  0
   -1.3080    0.9860   -0.0540 C   0  0  1  0  0  0  0  0  0  0  0  0
   -0.6970    2.0110    0.9150 C   0  0  0  0  0  0  0  0  0  0  0  0
    0.7210    2.1400    0.6050 N   0  0  0  0  0  0  0  0  0  0  0  0
    1.0150    1.4010   -0.6040 C   0  0  0  0  0  0  0  0  0  0  0  0
   -0.0880    0.3470   -0.7480 C   0  0  2  0  0  0  0  0  0  0  0  0
   -0.3720   -0.0650   -2.2030 C   0  0  0  0  0  0  0  0  0  0  0  0
    0.2210   -0.8890    0.1290 C   0  0  0  0  0  0  0  0  0  0  0  0
    1.6390    2.6310    1.5080 C   0  0  0  0  0  0  0  0  0  0  0  0
    1.2630    2.7590    2.6660 O   0  0  0  0  0  0  0  0  0  0  0  0
    3.0070    2.9420    1.1180 C   0  0  0  0  0  0  0  0  0  0  0  0
    3.6390    3.1150   -0.0850 C   0  0  0  0  0  0  0  0  0  0  0  0
    4.9900    3.4400    0.1720 C   0  0  0  0  0  0  0  0  0  0  0  0
    6.0870    3.7270   -0.6450 C   0  0  0  0  0  0  0  0  0  0  0  0
    7.2680    4.0110   -0.0600 N   0  3  0  0  0  0  0  0  0  0  0  0
    7.4510    4.0330    1.3180 C   0  0  0  0  0  0  0  0  0  0  0  0
    6.3880    3.7570    2.1510 C   0  0  0  0  0  0  0  0  0  0  0  0
    5.1520    3.4610    1.5560 C   0  0  0  0  0  0  0  0  0  0  0  0
    3.9480    3.1680    2.1150 N   0  0  0  0  0  0  0  0  0  0  0  0
   -1.8180   -3.1980   -0.4070 C   0  0  0  0  0  0  0  0  0  0  0  0
   -0.9640   -3.3410   -1.2550 O   0  0  0  0  0  0  0  0  0  0  0  0
   -3.0710   -3.5290   -0.8210 N   0  0  0  0  0  0  0  0  0  0  0  0
   -4.2760   -3.2900   -0.2250 C   0  0  0  0  0  0  0  0  0  0  0  0
   -5.2760   -3.9990   -0.7250 N   0  0  0  0  0  0  0  0  0  0  0  0
   -6.4830   -3.8180   -0.2150 C   0  0  0  0  0  0  0  0  0  0  0  0
   -6.6710   -2.9050    0.8110 C   0  0  0  0  0  0  0  0  0  0  0  0
   -5.5780   -2.1930    1.2810 C   0  0  0  0  0  0  0  0  0  0  0  0
   -4.3760   -2.3870    0.7540 N   0  0  0  0  0  0  0  0  0  0  0  0
  1  2  1  0  0  0  0
  2  3  1  0  0  0  0
  2 23  1  0  0  0  0
  3  4  1  0  0  0  0
  3 11  1  0  0  0  0
  4  5  1  0  0  0  0
  5  6  1  0  0  0  0
  5  9  1  0  0  0  0
  6  7  1  0  0  0  0
  7  8  1  0  0  0  0
  7 12  1  0  0  0  0
  8  9  1  0  0  0  0
  9 10  1  0  0  0  0
  9 11  1  0  0  0  0
 12 13  2  0  0  0  0
 12 14  1  0  0  0  0
 14 15  2  0  0  0  0
 14 22  1  0  0  0  0
 15 16  1  0  0  0  0
 16 17  2  0  0  0  0
 16 21  1  0  0  0  0
 17 18  1  0  0  0  0
 18 19  2  0  0  0  0
 19 20  1  0  0  0  0
 20 21  2  0  0  0  0
 21 22  1  0  0  0  0
 23 24  2  0  0  0  0
 23 25  1  0  0  0  0
 25 26  1  0  0  0  0
 26 27  1  0  0  0  0
 26 31  2  0  0  0  0
 27 28  2  0  0  0  0
 28 29  1  0  0  0  0
 29 30  2  0  0  0  0
 30 31  1  0  0  0  0
M  CHG  1   3   1
M  CHG  1  18   1
M  END
>  <NScode>
NS-042481098-0000

>  <a_acc>
6

>  <a_don>
2

>  <chiral>
3

>  <opr_nrot>
4

>  <Weight>
419.48898

>  <druglike>
1

>  <lip_druglike>
1

>  <lip_violation>
0

>  <logS>
-2.9879401

$$$$
