NS-006342286-0000
  MOE2022           3D

 23 25  0  0  0  0  0  0  0  0999 V2000
    1.5060   -0.2530    0.6460 C   0  0  0  0  0  0  0  0  0  0  0  0
    1.7060    1.1040    0.7420 C   0  0  0  0  0  0  0  0  0  0  0  0
    0.1340   -0.6040    0.6690 C   0  0  0  0  0  0  0  0  0  0  0  0
    2.6770   -1.0830    0.5410 C   0  0  0  0  0  0  0  0  0  0  0  0
    0.2290    1.9760    0.8450 S   0  0  0  0  0  0  0  0  0  0  0  0
    2.9590    1.6900    0.7570 N   0  0  0  0  0  0  0  0  0  0  0  0
   -0.6940    0.5060    0.7350 C   0  0  0  0  0  0  0  0  0  0  0  0
   -0.3420   -2.0480    0.6630 C   0  0  0  0  0  0  0  0  0  0  0  0
    3.9110   -0.4440    0.5640 N   0  0  0  0  0  0  0  0  0  0  0  0
    2.6730   -2.3130    0.4300 O   0  0  0  0  0  0  0  0  0  0  0  0
    3.9950    0.9370    0.6730 C   0  0  0  0  0  0  0  0  0  0  0  0
   -2.1460    0.5890    0.7120 C   0  0  0  0  0  0  0  0  0  0  0  0
    5.1620   -1.2020    0.4920 C   0  0  0  0  0  0  0  0  0  0  0  0
   -2.8080   -0.3020   -0.1070 N   0  0  0  0  0  0  0  0  0  0  0  0
   -2.7900    1.4080    1.3550 O   0  0  0  0  0  0  0  0  0  0  0  0
    6.0560   -0.7490   -0.6410 C   0  0  0  0  0  0  0  0  0  0  0  0
   -4.2000   -0.4420   -0.3210 C   0  0  0  0  0  0  0  0  0  0  0  0
    7.2400   -0.1460   -0.4520 C   0  0  0  0  0  0  0  0  0  0  0  0
   -4.6670   -1.7200   -0.6310 C   0  0  0  0  0  0  0  0  0  0  0  0
   -5.0820    0.6410   -0.2630 C   0  0  0  0  0  0  0  0  0  0  0  0
   -6.0220   -1.9160   -0.8730 C   0  0  0  0  0  0  0  0  0  0  0  0
   -6.4360    0.4340   -0.5050 C   0  0  0  0  0  0  0  0  0  0  0  0
   -6.9070   -0.8420   -0.8090 C   0  0  0  0  0  0  0  0  0  0  0  0
  1  2  2  0  0  0  0
  1  3  1  0  0  0  0
  1  4  1  0  0  0  0
  2  5  1  0  0  0  0
  2  6  1  0  0  0  0
  3  7  2  0  0  0  0
  3  8  1  0  0  0  0
  4  9  1  0  0  0  0
  4 10  2  0  0  0  0
  5  7  1  0  0  0  0
  6 11  2  0  0  0  0
  7 12  1  0  0  0  0
  9 11  1  0  0  0  0
  9 13  1  0  0  0  0
 12 14  1  0  0  0  0
 12 15  2  0  0  0  0
 13 16  1  0  0  0  0
 14 17  1  0  0  0  0
 16 18  2  0  0  0  0
 17 19  2  0  0  0  0
 17 20  1  0  0  0  0
 19 21  1  0  0  0  0
 20 22  2  0  0  0  0
 21 23  2  0  0  0  0
 22 23  1  0  0  0  0
M  END
>  <NScode>
NS-006342286-0000

>  <a_acc>
3

>  <a_don>
1

>  <chiral>
0

>  <opr_nrot>
4

>  <Weight>
325.392

>  <druglike>
1

>  <lip_druglike>
1

>  <lip_violation>
0

>  <logS>
-4.7263598

$$$$
