NS-018405515-0000
  MOE2022           3D

 27 28  0  0  0  0  0  0  0  0999 V2000
    4.1070    1.7670    1.3370 S   0  0  0  0  0  0  0  0  0  0  0  0
   -4.4900   -0.7660    0.6480 C   0  0  0  0  0  0  0  0  0  0  0  0
    2.9660    0.4000    1.1460 C   0  0  0  0  0  0  0  0  0  0  0  0
   -3.3430   -0.2310    0.1320 N   0  0  0  0  0  0  0  0  0  0  0  0
   -5.7960   -0.1660    0.3390 C   0  0  0  0  0  0  0  0  0  0  0  0
   -0.8610   -0.1890   -0.3910 C   0  0  0  0  0  0  0  0  0  0  0  0
    5.0550    1.4090    2.3310 O   0  0  0  0  0  0  0  0  0  0  0  0
    3.3460    2.9480    1.5420 O   0  0  0  0  0  0  0  0  0  0  0  0
    3.3960   -0.7550    0.2420 C   0  0  0  0  0  0  0  0  0  0  0  0
    0.2640   -0.9010   -0.4950 N   0  0  0  0  0  0  0  0  0  0  0  0
    4.8920    1.8860   -0.1020 N   0  0  0  0  0  0  0  0  0  0  0  0
    2.6750   -1.1450   -0.8990 C   0  0  0  0  0  0  0  0  0  0  0  0
   -4.3550   -1.7550    1.3580 O   0  0  0  0  0  0  0  0  0  0  0  0
   -5.9120    1.0830   -0.2950 C   0  0  0  0  0  0  0  0  0  0  0  0
    1.3830   -0.4700   -1.3190 C   0  0  0  0  0  0  0  0  0  0  0  0
   -0.9490    0.9080   -0.9360 O   0  0  0  0  0  0  0  0  0  0  0  0
   -2.0020   -0.7670    0.4400 C   0  0  0  0  0  0  0  0  0  0  0  0
   -7.1640    1.6200   -0.5780 C   0  0  0  0  0  0  0  0  0  0  0  0
   -7.3000    3.3010   -1.4360 Br  0  0  0  0  0  0  0  0  0  0  0  0
   -6.9710   -0.8510    0.6850 C   0  0  0  0  0  0  0  0  0  0  0  0
   -8.2210   -0.3130    0.4020 C   0  0  0  0  0  0  0  0  0  0  0  0
    4.5640   -1.4410    0.5800 C   0  0  0  0  0  0  0  0  0  0  0  0
    3.1420   -2.2060   -1.6750 C   0  0  0  0  0  0  0  0  0  0  0  0
    4.2090    2.3980   -1.2880 C   0  0  0  0  0  0  0  0  0  0  0  0
   -8.3190    0.9220   -0.2310 C   0  0  0  0  0  0  0  0  0  0  0  0
    5.0220   -2.4920   -0.2040 C   0  0  0  0  0  0  0  0  0  0  0  0
    4.3110   -2.8740   -1.3330 C   0  0  0  0  0  0  0  0  0  0  0  0
  1  3  1  0  0  0  0
  1  7  2  0  0  0  0
  1  8  2  0  0  0  0
  1 11  1  0  0  0  0
  2  4  1  0  0  0  0
  2  5  1  0  0  0  0
  2 13  2  0  0  0  0
  3  9  1  0  0  0  0
  4 17  1  0  0  0  0
  5 14  2  0  0  0  0
  5 20  1  0  0  0  0
  6 10  1  0  0  0  0
  6 16  2  0  0  0  0
  6 17  1  0  0  0  0
  9 12  2  0  0  0  0
  9 22  1  0  0  0  0
 10 15  1  0  0  0  0
 11 24  1  0  0  0  0
 12 15  1  0  0  0  0
 12 23  1  0  0  0  0
 14 18  1  0  0  0  0
 18 19  1  0  0  0  0
 18 25  2  0  0  0  0
 20 21  2  0  0  0  0
 21 25  1  0  0  0  0
 22 26  2  0  0  0  0
 23 27  2  0  0  0  0
 26 27  1  0  0  0  0
M  END
>  <NScode>
NS-018405515-0000

>  <a_acc>
4

>  <a_don>
3

>  <chiral>
0

>  <opr_nrot>
7

>  <Weight>
454.345

>  <druglike>
1

>  <lip_druglike>
1

>  <lip_violation>
0

>  <logS>
-4.3438902

$$$$
