NS-006808243-0000
  MOE2022           3D

 23 25  0  0  1  0  0  0  0  0999 V2000
    6.4630   -4.2190   -0.4020 C   0  0  0  0  0  0  0  0  0  0  0  0
    5.4430   -3.3610    0.0430 N   0  0  0  0  0  0  0  0  0  0  0  0
    4.3220   -4.2440    0.3680 N   0  0  0  0  0  0  0  0  0  0  0  0
    4.9460    0.6110   -0.6270 S   0  0  0  0  0  0  0  0  0  0  0  0
    5.8480   -5.4760   -0.5970 C   0  0  0  0  0  0  0  0  0  0  0  0
    8.7490   -2.9610    0.1400 S   0  0  0  0  0  0  0  0  0  0  0  0
    7.7400   -4.0450   -0.4930 N   0  0  0  0  0  0  0  0  0  0  0  0
    4.5840   -5.4850   -0.1060 C   0  0  0  0  0  0  0  0  0  0  0  0
    4.9800   -2.0860   -0.6100 C   0  0  3  0  0  0  0  0  0  0  0  0
    5.9050   -0.8660   -0.5270 C   0  0  0  0  0  0  0  0  0  0  0  0
    5.1000    1.1960   -1.9110 O   0  0  0  0  0  0  0  0  0  0  0  0
    5.1600    1.4020    0.5320 O   0  0  0  0  0  0  0  0  0  0  0  0
    3.5660   -1.6290   -0.1360 C   0  0  0  0  0  0  0  0  0  0  0  0
    8.6150   -1.7110   -0.5260 O   0  0  0  0  0  0  0  0  0  0  0  0
   10.0600   -3.5170    0.1920 O   0  0  0  0  0  0  0  0  0  0  0  0
    3.3620   -0.1560   -0.5230 C   0  0  0  0  0  0  0  0  0  0  0  0
    3.6130   -6.5720   -0.0310 C   0  0  0  0  0  0  0  0  0  0  0  0
    8.1990   -2.7610    1.8120 C   0  0  0  0  0  0  0  0  0  0  0  0
    2.2370   -6.3170   -0.1090 C   0  0  0  0  0  0  0  0  0  0  0  0
    4.0420   -7.8970    0.1220 C   0  0  0  0  0  0  0  0  0  0  0  0
    3.1210   -8.9360    0.2000 C   0  0  0  0  0  0  0  0  0  0  0  0
    1.3180   -7.3570   -0.0300 C   0  0  0  0  0  0  0  0  0  0  0  0
    1.7580   -8.6670    0.1250 C   0  0  0  0  0  0  0  0  0  0  0  0
  1  2  1  0  0  0  0
  1  5  1  0  0  0  0
  1  7  2  0  0  0  0
  2  3  1  0  0  0  0
  2  9  1  0  0  0  0
  3  8  1  0  0  0  0
  4 10  1  0  0  0  0
  4 11  2  0  0  0  0
  4 12  2  0  0  0  0
  4 16  1  0  0  0  0
  5  8  2  0  0  0  0
  6  7  1  0  0  0  0
  6 14  2  0  0  0  0
  6 15  2  0  0  0  0
  6 18  1  0  0  0  0
  8 17  1  0  0  0  0
  9 10  1  0  0  0  0
  9 13  1  0  0  0  0
 13 16  1  0  0  0  0
 17 19  1  0  0  0  0
 17 20  2  0  0  0  0
 19 22  2  0  0  0  0
 20 21  1  0  0  0  0
 21 23  2  0  0  0  0
 22 23  1  0  0  0  0
M  END
>  <NScode>
NS-006808243-0000

>  <a_acc>
5

>  <a_don>
1

>  <chiral>
1

>  <opr_nrot>
4

>  <Weight>
355.439

>  <druglike>
1

>  <lip_druglike>
1

>  <lip_violation>
0

>  <logS>
-2.7211299

$$$$
