NS-017296410-0000
  MOE2022           3D

 27 29  0  0  0  0  0  0  0  0999 V2000
   -7.3260    6.2350   -0.3970 S   0  0  0  0  0  0  0  0  0  0  0  0
   -2.8190    6.7670   -0.5810 C   0  0  0  0  0  0  0  0  0  0  0  0
   -2.0830    6.0780   -1.6460 C   0  0  0  0  0  0  0  0  0  0  0  0
   -6.3370    7.1190    0.5250 N   0  0  0  0  0  0  0  0  0  0  0  0
   -6.7050    4.5540   -0.2170 C   0  0  0  0  0  0  0  0  0  0  0  0
   -2.1940    7.5290    0.4310 C   0  0  0  0  0  0  0  0  0  0  0  0
   -8.6530    6.2710    0.1550 O   0  0  0  0  0  0  0  0  0  0  0  0
   -7.1930    6.6180   -1.7780 O   0  5  0  0  0  0  0  0  0  0  0  0
   -1.0490    6.6510   -2.3140 N   0  0  0  0  0  0  0  0  0  0  0  0
   -4.2100    6.6520   -0.5650 C   0  0  0  0  0  0  0  0  0  0  0  0
   -5.3870   -0.3220    1.0660 C   0  0  0  0  0  0  0  0  0  0  0  0
   -5.0080    7.2470    0.4480 C   0  0  0  0  0  0  0  0  0  0  0  0
   -5.0870    0.6920    0.1980 N   0  0  0  0  0  0  0  0  0  0  0  0
   -2.3470    4.9530   -2.0490 O   0  0  0  0  0  0  0  0  0  0  0  0
   -0.8140    7.7340    0.5440 O   0  0  0  0  0  0  0  0  0  0  0  0
   -6.2860   -0.2300    1.8730 O   0  0  0  0  0  0  0  0  0  0  0  0
   -2.9580    8.1370    1.4240 C   0  0  0  0  0  0  0  0  0  0  0  0
   -6.1370    3.8760   -1.3000 C   0  0  0  0  0  0  0  0  0  0  0  0
   -6.7740    3.9080    1.0210 C   0  0  0  0  0  0  0  0  0  0  0  0
   -5.6810    1.9720    0.0980 C   0  0  0  0  0  0  0  0  0  0  0  0
   -4.3350    8.0070    1.4340 C   0  0  0  0  0  0  0  0  0  0  0  0
   -5.6200    2.5950   -1.1470 C   0  0  0  0  0  0  0  0  0  0  0  0
   -6.2650    2.6230    1.1870 C   0  0  0  0  0  0  0  0  0  0  0  0
   -0.4190    7.8930   -1.9030 C   0  0  0  0  0  0  0  0  0  0  0  0
   -4.5290   -1.5620    0.9570 C   0  0  0  0  0  0  0  0  0  0  0  0
    0.1810    7.7800   -0.5040 C   0  0  0  0  0  0  0  0  0  0  0  0
   -3.0960   -1.3940    1.4980 C   0  0  0  0  0  0  0  0  0  0  0  0
  1  4  2  0  0  0  0
  1  5  1  0  0  0  0
  1  7  2  0  0  0  0
  1  8  1  0  0  0  0
  2  3  1  0  0  0  0
  2  6  1  0  0  0  0
  2 10  2  0  0  0  0
  3  9  1  0  0  0  0
  3 14  2  0  0  0  0
  4 12  1  0  0  0  0
  5 18  2  0  0  0  0
  5 19  1  0  0  0  0
  6 15  1  0  0  0  0
  6 17  2  0  0  0  0
  9 24  1  0  0  0  0
 10 12  1  0  0  0  0
 11 13  1  0  0  0  0
 11 16  2  0  0  0  0
 11 25  1  0  0  0  0
 12 21  2  0  0  0  0
 13 20  1  0  0  0  0
 15 26  1  0  0  0  0
 17 21  1  0  0  0  0
 18 22  1  0  0  0  0
 19 23  2  0  0  0  0
 20 22  2  0  0  0  0
 20 23  1  0  0  0  0
 24 26  1  0  0  0  0
 25 27  1  0  0  0  0
M  CHG  1   8  -1
M  END
>  <NScode>
NS-017296410-0000

>  <a_acc>
5

>  <a_don>
3

>  <chiral>
0

>  <opr_nrot>
5

>  <Weight>
389.43201

>  <druglike>
1

>  <lip_druglike>
1

>  <lip_violation>
0

>  <logS>
-3.8032899

$$$$
