NS-015446267-0000
  MOE2022           3D

 27 30  0  0  0  0  0  0  0  0999 V2000
   -1.0600   -1.9350    0.0450 N   0  0  0  0  0  0  0  0  0  0  0  0
   -2.1930   -2.5380   -0.1760 C   0  0  0  0  0  0  0  0  0  0  0  0
   -1.0690   -0.8670   -0.7910 C   0  0  0  0  0  0  0  0  0  0  0  0
   -2.9300   -1.8990   -1.1120 O   0  0  0  0  0  0  0  0  0  0  0  0
   -2.2210   -0.8540   -1.4890 C   0  0  0  0  0  0  0  0  0  0  0  0
    0.7090    3.0230   -0.8730 C   0  0  0  0  0  0  0  0  0  0  0  0
    1.5730    4.3040    1.4550 N   0  0  0  0  0  0  0  0  0  0  0  0
    0.1840    2.3100   -2.0290 C   0  0  0  0  0  0  0  0  0  0  0  0
    1.9990    2.6840   -0.2940 C   0  0  0  0  0  0  0  0  0  0  0  0
    2.3940    3.3210    0.8990 C   0  0  0  0  0  0  0  0  0  0  0  0
    0.4070    4.7030    0.8760 C   0  0  0  0  0  0  0  0  0  0  0  0
   -0.0240    4.0350   -0.3140 C   0  0  0  0  0  0  0  0  0  0  0  0
    0.0590    0.9670   -2.0280 O   0  0  0  0  0  0  0  0  0  0  0  0
    0.0800    0.1200   -0.8430 C   0  0  0  0  0  0  0  0  0  0  0  0
   -2.7010   -3.7560    0.4540 C   0  0  0  0  0  0  0  0  0  0  0  0
   -0.2200    2.8750   -3.0250 O   0  0  0  0  0  0  0  0  0  0  0  0
   -0.1990    5.6040    1.4410 O   0  0  0  0  0  0  0  0  0  0  0  0
   -2.7670    0.0870   -2.5380 C   0  0  0  0  0  0  0  0  0  0  0  0
    2.8960    1.7620   -0.8680 C   0  0  0  0  0  0  0  0  0  0  0  0
    3.5980    3.0130    1.5360 C   0  0  0  0  0  0  0  0  0  0  0  0
   -1.9370   -4.4330    1.4180 C   0  0  0  0  0  0  0  0  0  0  0  0
   -3.9590   -4.2800    0.1140 C   0  0  0  0  0  0  0  0  0  0  0  0
    4.0970    1.4600   -0.2420 C   0  0  0  0  0  0  0  0  0  0  0  0
    4.4450    2.0780    0.9640 C   0  0  0  0  0  0  0  0  0  0  0  0
   -4.4340   -5.4400    0.7170 C   0  0  0  0  0  0  0  0  0  0  0  0
   -2.4130   -5.5930    2.0190 C   0  0  0  0  0  0  0  0  0  0  0  0
   -3.6620   -6.0980    1.6700 C   0  0  0  0  0  0  0  0  0  0  0  0
  1  2  2  0  0  0  0
  1  3  1  0  0  0  0
  2  4  1  0  0  0  0
  2 15  1  0  0  0  0
  3  5  2  0  0  0  0
  3 14  1  0  0  0  0
  4  5  1  0  0  0  0
  5 18  1  0  0  0  0
  6  8  1  0  0  0  0
  6  9  1  0  0  0  0
  6 12  2  0  0  0  0
  7 10  1  0  0  0  0
  7 11  1  0  0  0  0
  8 13  1  0  0  0  0
  8 16  2  0  0  0  0
  9 10  2  0  0  0  0
  9 19  1  0  0  0  0
 10 20  1  0  0  0  0
 11 12  1  0  0  0  0
 11 17  2  0  0  0  0
 13 14  1  0  0  0  0
 15 21  1  0  0  0  0
 15 22  2  0  0  0  0
 19 23  2  0  0  0  0
 20 24  2  0  0  0  0
 21 26  2  0  0  0  0
 22 25  1  0  0  0  0
 23 24  1  0  0  0  0
 25 27  2  0  0  0  0
 26 27  1  0  0  0  0
M  END
>  <NScode>
NS-015446267-0000

>  <a_acc>
3

>  <a_don>
1

>  <chiral>
0

>  <opr_nrot>
4

>  <Weight>
360.36899

>  <druglike>
1

>  <lip_druglike>
1

>  <lip_violation>
0

>  <logS>
-6.0388598

$$$$
