NS-021667591-0000
  MOE2022           3D

 23 26  0  0  1  0  0  0  0  0999 V2000
   -1.2350    1.3530   -1.1190 O   0  0  0  0  0  0  0  0  0  0  0  0
   -0.2810    0.8470   -0.5430 C   0  0  0  0  0  0  0  0  0  0  0  0
   -0.3680   -0.4960   -0.2190 N   0  0  0  0  0  0  0  0  0  0  0  0
    0.6820   -1.2650    0.4500 C   0  0  0  0  0  0  0  0  0  0  0  0
    0.4550   -2.7400    0.1260 C   0  0  0  0  0  0  0  0  0  0  0  0
   -1.0600   -2.7600   -0.0640 C   0  0  0  0  0  0  0  0  0  0  0  0
   -1.4490   -1.3940   -0.6470 C   0  0  1  0  0  0  0  0  0  0  0  0
   -2.8620   -0.9380   -0.2290 C   0  0  0  0  0  0  0  0  0  0  0  0
   -3.8890   -1.9480   -0.4150 N   0  0  0  0  0  0  0  0  0  0  0  0
   -4.6820   -2.4620    0.5260 C   0  0  0  0  0  0  0  0  0  0  0  0
   -5.4400   -3.3680   -0.1160 C   0  0  0  0  0  0  0  0  0  0  0  0
   -5.1070   -3.4040   -1.4210 N   0  0  0  0  0  0  0  0  0  0  0  0
   -4.1490   -2.5240   -1.5980 N   0  0  0  0  0  0  0  0  0  0  0  0
    0.9030    1.6180   -0.1740 C   0  0  0  0  0  0  0  0  0  0  0  0
    0.8140    2.6090    0.8200 C   0  0  0  0  0  0  0  0  0  0  0  0
    1.9360    3.3430    1.1970 C   0  0  0  0  0  0  0  0  0  0  0  0
    3.1560    3.0930    0.5770 C   0  0  0  0  0  0  0  0  0  0  0  0
    4.2550    3.8360    0.9550 O   0  0  0  0  0  0  0  0  0  0  0  0
    5.4300    3.7850    0.1080 C   0  0  0  0  0  0  0  0  0  0  0  0
    5.6680    2.3730   -0.4310 C   0  0  0  0  0  0  0  0  0  0  0  0
    4.4650    1.8270   -1.0280 O   0  0  0  0  0  0  0  0  0  0  0  0
    3.2550    2.1070   -0.4170 C   0  0  0  0  0  0  0  0  0  0  0  0
    2.1350    1.3860   -0.8040 C   0  0  0  0  0  0  0  0  0  0  0  0
  1  2  2  0  0  0  0
  2  3  1  0  0  0  0
  2 14  1  0  0  0  0
  3  4  1  0  0  0  0
  3  7  1  0  0  0  0
  4  5  1  0  0  0  0
  5  6  1  0  0  0  0
  6  7  1  0  0  0  0
  7  8  1  0  0  0  0
  8  9  1  0  0  0  0
  9 10  1  0  0  0  0
  9 13  1  0  0  0  0
 10 11  2  0  0  0  0
 11 12  1  0  0  0  0
 12 13  2  0  0  0  0
 14 15  2  0  0  0  0
 14 23  1  0  0  0  0
 15 16  1  0  0  0  0
 16 17  2  0  0  0  0
 17 18  1  0  0  0  0
 17 22  1  0  0  0  0
 18 19  1  0  0  0  0
 19 20  1  0  0  0  0
 20 21  1  0  0  0  0
 21 22  1  0  0  0  0
 22 23  2  0  0  0  0
M  END
>  <NScode>
NS-021667591-0000

>  <a_acc>
5

>  <a_don>
0

>  <chiral>
1

>  <opr_nrot>
5

>  <Weight>
314.345

>  <druglike>
1

>  <lip_druglike>
1

>  <lip_violation>
0

>  <logS>
-1.87165

$$$$
