NS-021513603-0000
  MOE2022           3D

 31 34  0  0  1  0  0  0  0  0999 V2000
    1.2370    4.9110    0.1510 C   0  0  0  0  0  0  0  0  0  0  0  0
    1.3930    3.9680    1.1380 C   0  0  0  0  0  0  0  0  0  0  0  0
    2.3280    5.1780   -0.6960 C   0  0  0  0  0  0  0  0  0  0  0  0
   -0.7350    4.7890    1.2580 N   0  0  0  0  0  0  0  0  0  0  0  0
    2.5170    3.2600    1.3880 N   0  0  0  0  0  0  0  0  0  0  0  0
    0.1970    3.9070    1.7880 N   0  0  0  0  0  0  0  0  0  0  0  0
    2.2150    6.2010   -1.8210 C   0  0  0  0  0  0  0  0  0  0  0  0
   -0.0960    5.3590    0.2980 C   0  0  0  0  0  0  0  0  0  0  0  0
    3.5510    3.5000    0.6030 C   0  0  0  0  0  0  0  0  0  0  0  0
    3.4870    4.4510   -0.4510 C   0  0  0  0  0  0  0  0  0  0  0  0
    7.6040    1.8080    0.4870 N   0  0  0  0  0  0  0  0  0  0  0  0
    8.8990    1.4810    0.2570 C   0  0  0  0  0  0  0  0  0  0  0  0
    4.8240    2.7090    0.8710 C   0  0  0  0  0  0  0  0  0  0  0  0
    6.4790    0.9840   -0.0100 C   0  0  0  0  0  0  0  0  0  0  0  0
    7.2780    2.7950    1.5380 C   0  0  0  0  0  0  0  0  0  0  0  0
    9.8020    2.0600    0.8570 O   0  0  0  0  0  0  0  0  0  0  0  0
    1.4050    5.7920   -2.8040 F   0  0  0  0  0  0  0  0  0  0  0  0
    3.4010    6.4640   -2.3990 F   0  0  0  0  0  0  0  0  0  0  0  0
    1.7420    7.3880   -1.3900 F   0  0  0  0  0  0  0  0  0  0  0  0
    9.8200   -3.8210    0.3400 O   0  0  0  0  0  0  0  0  0  0  0  0
    6.0170    3.6100    1.2200 C   0  0  0  0  0  0  0  0  0  0  0  0
    5.2230    1.8130   -0.3120 C   0  0  0  0  0  0  0  0  0  0  0  0
   -0.7700    6.3100   -0.4320 N   0  0  0  0  0  0  0  0  0  0  0  0
    8.8180   -0.9870   -0.3020 O   0  0  0  0  0  0  0  0  0  0  0  0
    9.2590    0.3620   -0.7180 C   0  0  0  0  0  0  0  0  0  0  0  0
   10.4280   -2.6130    0.7900 C   0  0  3  0  0  0  0  0  0  0  0  0
    9.3630   -1.5120    0.9610 C   0  0  0  0  0  0  0  0  0  0  0  0
   10.7160   -4.9220    0.2660 C   0  0  0  0  0  0  0  0  0  0  0  0
   11.5530   -2.1980   -0.1740 C   0  0  0  0  0  0  0  0  0  0  0  0
   11.8540   -4.6190   -0.7170 C   0  0  0  0  0  0  0  0  0  0  0  0
   12.5830   -3.3270   -0.3190 C   0  0  0  0  0  0  0  0  0  0  0  0
  1  2  2  0  0  0  0
  1  3  1  0  0  0  0
  1  8  1  0  0  0  0
  2  5  1  0  0  0  0
  2  6  1  0  0  0  0
  3  7  1  0  0  0  0
  3 10  2  0  0  0  0
  4  6  1  0  0  0  0
  4  8  2  0  0  0  0
  5  9  2  0  0  0  0
  7 17  1  0  0  0  0
  7 18  1  0  0  0  0
  7 19  1  0  0  0  0
  8 23  1  0  0  0  0
  9 10  1  0  0  0  0
  9 13  1  0  0  0  0
 11 12  1  0  0  0  0
 11 14  1  0  0  0  0
 11 15  1  0  0  0  0
 12 16  2  0  0  0  0
 12 25  1  0  0  0  0
 13 21  1  0  0  0  0
 13 22  1  0  0  0  0
 14 22  1  0  0  0  0
 15 21  1  0  0  0  0
 20 26  1  0  0  0  0
 20 28  1  0  0  0  0
 24 25  1  0  0  0  0
 24 27  1  0  0  0  0
 26 27  1  0  0  0  0
 26 29  1  0  0  0  0
 28 30  1  0  0  0  0
 29 31  1  0  0  0  0
 30 31  1  0  0  0  0
M  END
>  <NScode>
NS-021513603-0000

>  <a_acc>
6

>  <a_don>
4

>  <chiral>
1

>  <opr_nrot>
9

>  <Weight>
441.45398

>  <druglike>
1

>  <lip_druglike>
1

>  <lip_violation>
0

>  <logS>
-4.45611

$$$$
