NS-019460331-0000
  MOE2022           3D

 24 26  0  0  1  0  0  0  0  0999 V2000
   -2.3560   -0.7250   -0.4670 N   0  0  0  0  0  0  0  0  0  0  0  0
   -2.0230    0.4560    0.1780 C   0  0  0  0  0  0  0  0  0  0  0  0
   -0.6810    1.0240    0.0820 C   0  0  0  0  0  0  0  0  0  0  0  0
    0.7120    2.8830   -0.4780 N   0  0  0  0  0  0  0  0  0  0  0  0
   -3.3000   -1.6330    0.2260 C   0  0  0  0  0  0  0  0  0  0  0  0
   -3.1190   -3.1240   -0.1360 C   0  0  3  0  0  0  0  0  0  0  0  0
   -0.4800    2.3660   -0.3650 C   0  0  0  0  0  0  0  0  0  0  0  0
    0.4150    0.2620    0.4320 C   0  0  0  0  0  0  0  0  0  0  0  0
   -3.7910   -4.0120    0.9160 C   0  0  0  0  0  0  0  0  0  0  0  0
    1.7060    0.8170    0.3150 C   0  0  0  0  0  0  0  0  0  0  0  0
    1.8260    2.1450   -0.1510 C   0  0  0  0  0  0  0  0  0  0  0  0
   -1.7800   -1.2640   -1.7150 C   0  0  3  0  0  0  0  0  0  0  0  0
   -2.8950    0.9620    0.8770 O   0  0  0  0  0  0  0  0  0  0  0  0
   -1.6210   -3.4480   -0.3400 C   0  0  0  0  0  0  0  0  0  0  0  0
    2.8780    0.0900    0.6470 C   0  0  0  0  0  0  0  0  0  0  0  0
   -3.1590   -4.5690    1.7980 O   0  0  0  0  0  0  0  0  0  0  0  0
   -0.9910   -2.5590   -1.4360 C   0  0  0  0  0  0  0  0  0  0  0  0
    3.1070    2.7180   -0.2810 C   0  0  0  0  0  0  0  0  0  0  0  0
   -5.1050   -4.1510    0.8870 N   0  0  0  0  0  0  0  0  0  0  0  0
    4.1220    0.6680    0.5150 C   0  0  0  0  0  0  0  0  0  0  0  0
    4.2330    1.9950    0.0460 C   0  0  0  0  0  0  0  0  0  0  0  0
   -1.6440    3.2580   -0.7360 C   0  0  0  0  0  0  0  0  0  0  0  0
   -1.0290   -0.2790   -2.6220 C   0  0  0  0  0  0  0  0  0  0  0  0
    5.3770   -0.0980    0.8700 C   0  0  0  0  0  0  0  0  0  0  0  0
  1  2  1  0  0  0  0
  1  5  1  0  0  0  0
  1 12  1  0  0  0  0
  2  3  1  0  0  0  0
  2 13  2  0  0  0  0
  3  7  2  0  0  0  0
  3  8  1  0  0  0  0
  4  7  1  0  0  0  0
  4 11  2  0  0  0  0
  5  6  1  0  0  0  0
  6  9  1  0  0  0  0
  6 14  1  0  0  0  0
  7 22  1  0  0  0  0
  8 10  2  0  0  0  0
  9 16  2  0  0  0  0
  9 19  1  0  0  0  0
 10 11  1  0  0  0  0
 10 15  1  0  0  0  0
 11 18  1  0  0  0  0
 12 17  1  0  0  0  0
 12 23  1  0  0  0  0
 14 17  1  0  0  0  0
 15 20  2  0  0  0  0
 18 21  2  0  0  0  0
 20 21  1  0  0  0  0
 20 24  1  0  0  0  0
M  END
>  <NScode>
NS-019460331-0000

>  <a_acc>
3

>  <a_don>
1

>  <chiral>
2

>  <opr_nrot>
4

>  <Weight>
325.41199

>  <druglike>
1

>  <lip_druglike>
1

>  <lip_violation>
0

>  <logS>
-3.7155001

$$$$
