NS-019642475-0000
  MOE2022           3D

 20 21  0  0  0  0  0  0  0  0999 V2000
   -4.3830    0.9510   -0.9240 C   0  0  0  0  0  0  0  0  0  0  0  0
   -2.2660    0.8640    0.2940 C   0  0  0  0  0  0  0  0  0  0  0  0
    1.0600   -0.5890   -0.7430 C   0  0  0  0  0  0  0  0  0  0  0  0
   -0.8290    0.5890    0.3830 C   0  0  0  0  0  0  0  0  0  0  0  0
   -2.9840    0.6790   -0.8630 C   0  0  0  0  0  0  0  0  0  0  0  0
    1.1850   -1.5900   -1.5950 N   0  0  0  0  0  0  0  0  0  0  0  0
   -5.0080    1.4230    0.2300 N   0  0  0  0  0  0  0  0  0  0  0  0
   -0.2620   -0.2280   -0.5670 N   0  0  0  0  0  0  0  0  0  0  0  0
   -4.2950    1.6260    1.4030 C   0  0  0  0  0  0  0  0  0  0  0  0
   -2.9600    1.3580    1.4470 C   0  0  0  0  0  0  0  0  0  0  0  0
    2.4080   -2.0300   -1.8590 C   0  0  0  0  0  0  0  0  0  0  0  0
    3.5070   -1.5180   -1.3170 N   0  0  0  0  0  0  0  0  0  0  0  0
    2.1690    0.0020   -0.1460 C   0  0  0  0  0  0  0  0  0  0  0  0
    3.4120   -0.5020   -0.4650 C   0  0  0  0  0  0  0  0  0  0  0  0
   -5.0680    0.7930   -1.9420 O   0  0  0  0  0  0  0  0  0  0  0  0
   -0.1290    1.0350    1.2780 O   0  0  0  0  0  0  0  0  0  0  0  0
   -6.4450    1.7250    0.1950 C   0  0  0  0  0  0  0  0  0  0  0  0
    2.5650   -3.1810   -2.8130 C   0  0  0  0  0  0  0  0  0  0  0  0
    4.6810    0.0570    0.1410 C   0  0  0  0  0  0  0  0  0  0  0  0
    5.0060   -0.5450    1.5130 C   0  0  0  0  0  0  0  0  0  0  0  0
  1  5  1  0  0  0  0
  1  7  1  0  0  0  0
  1 15  2  0  0  0  0
  2  4  1  0  0  0  0
  2  5  2  0  0  0  0
  2 10  1  0  0  0  0
  3  6  1  0  0  0  0
  3  8  1  0  0  0  0
  3 13  2  0  0  0  0
  4  8  1  0  0  0  0
  4 16  2  0  0  0  0
  6 11  2  0  0  0  0
  7  9  1  0  0  0  0
  7 17  1  0  0  0  0
  9 10  2  0  0  0  0
 11 12  1  0  0  0  0
 11 18  1  0  0  0  0
 12 14  2  0  0  0  0
 13 14  1  0  0  0  0
 14 19  1  0  0  0  0
 19 20  1  0  0  0  0
M  END
>  <NScode>
NS-019642475-0000

>  <a_acc>
4

>  <a_don>
1

>  <chiral>
0

>  <opr_nrot>
3

>  <Weight>
272.30798

>  <druglike>
1

>  <lip_druglike>
1

>  <lip_violation>
0

>  <logS>
-2.31194

$$$$
