NS-006155347-0000
  MOE2022           3D

 14 15  0  0  1  0  0  0  0  0999 V2000
    0.2500   -0.0490   -0.1920 C   0  0  0  0  0  0  0  0  0  0  0  0
    0.2660    1.2590    0.3050 C   0  0  0  0  0  0  0  0  0  0  0  0
   -1.0590   -0.7610   -0.5780 C   0  0  3  0  0  0  0  0  0  0  0  0
    1.4590   -0.7220   -0.3710 C   0  0  0  0  0  0  0  0  0  0  0  0
    1.4780    1.8690    0.6200 C   0  0  0  0  0  0  0  0  0  0  0  0
   -1.0350    2.0000    0.5160 C   0  0  0  0  0  0  0  0  0  0  0  0
   -2.2910    0.1090   -0.3380 O   0  0  0  0  0  0  0  0  0  0  0  0
   -1.1750   -2.2120   -0.0510 C   0  0  0  0  0  0  0  0  0  0  0  0
    2.6720   -0.1140   -0.0570 C   0  0  0  0  0  0  0  0  0  0  0  0
    2.6770    1.1870    0.4360 C   0  0  0  0  0  0  0  0  0  0  0  0
   -2.1050    1.5250   -0.4600 C   0  0  0  0  0  0  0  0  0  0  0  0
   -1.3570   -2.4380    1.1720 O   0  5  0  0  0  0  0  0  0  0  0  0
   -1.0010   -3.1340   -0.8890 O   0  0  0  0  0  0  0  0  0  0  0  0
    3.9700   -0.8610   -0.2590 C   0  0  0  0  0  0  0  0  0  0  0  0
  1  2  2  0  0  0  0
  1  3  1  0  0  0  0
  1  4  1  0  0  0  0
  2  5  1  0  0  0  0
  2  6  1  0  0  0  0
  3  7  1  0  0  0  0
  3  8  1  0  0  0  0
  4  9  2  0  0  0  0
  5 10  2  0  0  0  0
  6 11  1  0  0  0  0
  7 11  1  0  0  0  0
  8 12  1  0  0  0  0
  8 13  2  0  0  0  0
  9 10  1  0  0  0  0
  9 14  1  0  0  0  0
M  CHG  1  12  -1
M  END
>  <NScode>
NS-006155347-0000

>  <a_acc>
2

>  <a_don>
2

>  <chiral>
1

>  <opr_nrot>
2

>  <Weight>
192.21399

>  <druglike>
1

>  <lip_druglike>
1

>  <lip_violation>
0

>  <logS>
-2.1547101

$$$$
