NS-042443047-0000
  MOE2022           3D

 19 20  0  0  0  0  0  0  0  0999 V2000
    3.6700    4.1510   -1.0140 C   0  0  0  0  0  0  0  0  0  0  0  0
    3.1480    2.9480   -0.2450 C   0  0  0  0  0  0  0  0  0  0  0  0
    3.8850    2.6210    0.8550 N   0  3  0  0  0  0  0  0  0  0  0  0
    3.5870    1.5680    1.6590 C   0  0  0  0  0  0  0  0  0  0  0  0
    2.4880    0.7920    1.3760 C   0  0  0  0  0  0  0  0  0  0  0  0
    1.6860    1.0950    0.2660 C   0  0  0  0  0  0  0  0  0  0  0  0
    0.5870    0.3130    0.0580 N   0  0  0  0  0  0  0  0  0  0  0  0
    0.6790   -1.1610    0.0230 C   0  0  0  0  0  0  0  0  0  0  0  0
   -0.2270   -1.8110    1.0780 C   0  0  0  0  0  0  0  0  0  0  0  0
   -1.6940   -1.3500    0.9700 C   0  0  0  0  0  0  0  0  0  0  0  0
   -2.4110   -1.8330   -0.3190 C   0  0  0  0  0  0  0  0  0  0  0  0
   -2.5150   -3.5900   -0.6090 S   0  0  0  0  0  0  0  0  0  0  0  0
   -1.2390   -4.0400   -1.0290 O   0  0  0  0  0  0  0  0  0  0  0  0
   -3.0890   -4.1860    0.5400 O   0  0  0  0  0  0  0  0  0  0  0  0
   -3.5540   -3.7400   -1.8450 N   0  0  0  0  0  0  0  0  0  0  0  0
   -1.6920    0.1870    1.0880 C   0  0  0  0  0  0  0  0  0  0  0  0
   -0.7760    0.8790    0.0630 C   0  0  0  0  0  0  0  0  0  0  0  0
    2.0360    2.1850   -0.5760 C   0  0  0  0  0  0  0  0  0  0  0  0
    1.0720    2.5840   -2.1620 Br  0  0  0  0  0  0  0  0  0  0  0  0
  1  2  1  0  0  0  0
  2  3  1  0  0  0  0
  2 18  2  0  0  0  0
  3  4  2  0  0  0  0
  4  5  1  0  0  0  0
  5  6  2  0  0  0  0
  6  7  1  0  0  0  0
  6 18  1  0  0  0  0
  7  8  1  0  0  0  0
  7 17  1  0  0  0  0
  8  9  1  0  0  0  0
  9 10  1  0  0  0  0
 10 11  1  0  0  0  0
 10 16  1  0  0  0  0
 11 12  1  0  0  0  0
 12 13  2  0  0  0  0
 12 14  2  0  0  0  0
 12 15  1  0  0  0  0
 16 17  1  0  0  0  0
 18 19  1  0  0  0  0
M  CHG  1   3   1
M  END
>  <NScode>
NS-042443047-0000

>  <a_acc>
3

>  <a_don>
1

>  <chiral>
0

>  <opr_nrot>
5

>  <Weight>
348.26498

>  <druglike>
1

>  <lip_druglike>
1

>  <lip_violation>
0

>  <logS>
-2.28373

$$$$
