NS-012701295-0000
  MOE2022           3D

 19 21  0  0  1  0  0  0  0  0999 V2000
    1.6850    1.3240    0.6260 C   0  0  0  0  0  0  0  0  0  0  0  0
    2.1180    2.5940    0.8830 C   0  0  0  0  0  0  0  0  0  0  0  0
    3.3960    2.8550    1.3450 N   0  0  0  0  0  0  0  0  0  0  0  0
    2.5870    0.2250    0.8450 C   0  0  0  0  0  0  0  0  0  0  0  0
    3.8710    0.5050    1.3340 N   0  0  0  0  0  0  0  0  0  0  0  0
    4.3140    1.8350    1.5650 C   0  0  0  0  0  0  0  0  0  0  0  0
    0.3440    1.3370    0.1590 C   0  0  0  0  0  0  0  0  0  0  0  0
    0.9510    3.8190    0.5730 S   0  0  0  0  0  0  0  0  0  0  0  0
   -0.1770    2.5950    0.0710 C   0  0  0  0  0  0  0  0  0  0  0  0
   -0.4920    0.1440   -0.2590 C   0  0  0  0  0  0  0  0  0  0  0  0
   -2.2700    1.7110   -0.8830 O   0  0  0  0  0  0  0  0  0  0  0  0
    2.3070   -0.9560    0.6280 O   0  0  0  0  0  0  0  0  0  0  0  0
   -2.0120    0.4380   -0.2060 C   0  0  3  0  0  0  0  0  0  0  0  0
   -1.5800    2.9130   -0.3920 C   0  0  0  0  0  0  0  0  0  0  0  0
    5.8680    2.2040    2.0800 S   0  0  0  0  0  0  0  0  0  0  0  0
    4.8300   -0.5940    1.5740 C   0  0  0  0  0  0  0  0  0  0  0  0
   -2.5780    0.5340    1.2340 C   0  0  0  0  0  0  0  0  0  0  0  0
   -2.7660   -0.6240   -1.0140 C   0  0  0  0  0  0  0  0  0  0  0  0
   -2.5640   -0.7570    2.0730 C   0  0  0  0  0  0  0  0  0  0  0  0
  1  2  2  0  0  0  0
  1  4  1  0  0  0  0
  1  7  1  0  0  0  0
  2  3  1  0  0  0  0
  2  8  1  0  0  0  0
  3  6  1  0  0  0  0
  4  5  1  0  0  0  0
  4 12  2  0  0  0  0
  5  6  1  0  0  0  0
  5 16  1  0  0  0  0
  6 15  2  0  0  0  0
  7  9  2  0  0  0  0
  7 10  1  0  0  0  0
  8  9  1  0  0  0  0
  9 14  1  0  0  0  0
 10 13  1  0  0  0  0
 11 13  1  0  0  0  0
 11 14  1  0  0  0  0
 13 17  1  0  0  0  0
 13 18  1  0  0  0  0
 17 19  1  0  0  0  0
M  END
>  <NScode>
NS-012701295-0000

>  <a_acc>
3

>  <a_don>
0

>  <chiral>
1

>  <opr_nrot>
1

>  <Weight>
296.41501

>  <druglike>
1

>  <lip_druglike>
1

>  <lip_violation>
0

>  <logS>
-4.4040699

$$$$
