NS-016117505-0000
  MOE2022           3D

 28 31  0  0  0  0  0  0  0  0999 V2000
   -3.3610   -0.1740   -0.7250 N   0  0  0  0  0  0  0  0  0  0  0  0
   -3.4400   -0.7800   -1.9600 C   0  0  0  0  0  0  0  0  0  0  0  0
   -3.4370   -1.1160    0.2770 N   0  0  0  0  0  0  0  0  0  0  0  0
   -3.5750   -2.0970   -1.6870 O   0  0  0  0  0  0  0  0  0  0  0  0
   -3.5800   -2.2130   -0.3350 C   0  0  0  0  0  0  0  0  0  0  0  0
   -3.0850    1.2460   -0.5760 C   0  0  0  0  0  0  0  0  0  0  0  0
    0.8190    3.0040    0.1130 N   0  0  0  0  0  0  0  0  0  0  0  0
   -1.6450    1.5080   -0.6740 N   0  0  0  0  0  0  0  0  0  0  0  0
   -3.4010   -0.0860   -3.4880 S   0  0  0  0  0  0  0  0  0  0  0  0
   -2.3170   -4.3080    0.6080 N   0  3  0  0  0  0  0  0  0  0  0  0
    2.1150    3.5300    0.2280 C   0  0  0  0  0  0  0  0  0  0  0  0
   -3.6600   -3.5960    0.2970 C   0  0  0  0  0  0  0  0  0  0  0  0
    4.6870    4.6570    0.4370 C   0  0  0  0  0  0  0  0  0  0  0  0
    6.0290    5.2190    0.5440 C   0  0  0  0  0  0  0  0  0  0  0  0
    0.5340    1.6330    0.5960 C   0  0  0  0  0  0  0  0  0  0  0  0
    0.1120    3.2580   -1.1680 C   0  0  0  0  0  0  0  0  0  0  0  0
    6.9930    4.5170    0.7620 O   0  0  0  0  0  0  0  0  0  0  0  0
    2.2950    4.9080    0.0690 C   0  0  0  0  0  0  0  0  0  0  0  0
    3.2210    2.7140    0.5040 C   0  0  0  0  0  0  0  0  0  0  0  0
    3.5630    5.4620    0.1690 C   0  0  0  0  0  0  0  0  0  0  0  0
    4.4860    3.2750    0.6050 C   0  0  0  0  0  0  0  0  0  0  0  0
   -1.3910    2.9040   -1.1140 C   0  0  0  0  0  0  0  0  0  0  0  0
   -0.9750    1.3030    0.6370 C   0  0  0  0  0  0  0  0  0  0  0  0
   -1.4210   -4.4850   -0.5990 C   0  0  0  0  0  0  0  0  0  0  0  0
   -2.4640   -5.6720    1.2450 C   0  0  0  0  0  0  0  0  0  0  0  0
    6.2980    6.6970    0.3900 C   0  0  0  0  0  0  0  0  0  0  0  0
   -1.7240   -6.6870    0.3740 C   0  0  0  0  0  0  0  0  0  0  0  0
   -0.7730   -5.8620   -0.4960 C   0  0  0  0  0  0  0  0  0  0  0  0
  1  2  1  0  0  0  0
  1  3  1  0  0  0  0
  1  6  1  0  0  0  0
  2  4  1  0  0  0  0
  2  9  2  0  0  0  0
  3  5  2  0  0  0  0
  4  5  1  0  0  0  0
  5 12  1  0  0  0  0
  6  8  1  0  0  0  0
  7 11  1  0  0  0  0
  7 15  1  0  0  0  0
  7 16  1  0  0  0  0
  8 22  1  0  0  0  0
  8 23  1  0  0  0  0
 10 12  1  0  0  0  0
 10 24  1  0  0  0  0
 10 25  1  0  0  0  0
 11 18  2  0  0  0  0
 11 19  1  0  0  0  0
 13 14  1  0  0  0  0
 13 20  2  0  0  0  0
 13 21  1  0  0  0  0
 14 17  2  0  0  0  0
 14 26  1  0  0  0  0
 15 23  1  0  0  0  0
 16 22  1  0  0  0  0
 18 20  1  0  0  0  0
 19 21  2  0  0  0  0
 24 28  1  0  0  0  0
 25 27  1  0  0  0  0
 27 28  1  0  0  0  0
M  CHG  1  10   1
M  END
>  <NScode>
NS-016117505-0000

>  <a_acc>
5

>  <a_don>
0

>  <chiral>
0

>  <opr_nrot>
9

>  <Weight>
401.535

>  <druglike>
1

>  <lip_druglike>
1

>  <lip_violation>
0

>  <logS>
-4.2684698

$$$$
