NS-024767338-0000F6608-2844
  MOE2022           3D

 24 27  0  0  0  0  0  0  0  0999 V2000
   -0.8850   -5.7310   -0.1010 C   0  0  0  0  0  0  0  0  0  0  0  0
   -0.8930   -7.0620   -0.2760 N   0  0  0  0  0  0  0  0  0  0  0  0
   -2.1110   -5.2860   -0.3210 N   0  0  0  0  0  0  0  0  0  0  0  0
    0.3870   -5.1210    0.2490 C   0  0  0  0  0  0  0  0  0  0  0  0
   -2.8890   -6.3580   -0.6250 N   0  0  0  0  0  0  0  0  0  0  0  0
   -2.1410   -7.4180   -0.5920 C   0  0  0  0  0  0  0  0  0  0  0  0
    0.5420   -3.7310    0.4880 N   0  0  0  0  0  0  0  0  0  0  0  0
    1.4740   -5.8420    0.3610 N   0  0  0  0  0  0  0  0  0  0  0  0
    1.9130    1.4600    0.5150 C   0  0  0  0  0  0  0  0  0  0  0  0
    1.9590    2.6140    1.1830 N   0  0  0  0  0  0  0  0  0  0  0  0
    2.6210    1.1990   -0.5930 N   0  0  0  0  0  0  0  0  0  0  0  0
    0.2580   -7.8450   -0.1460 C   0  0  0  0  0  0  0  0  0  0  0  0
    1.4170   -7.2120    0.1660 C   0  0  0  0  0  0  0  0  0  0  0  0
    1.8820   -3.1380    0.2510 C   0  0  0  0  0  0  0  0  0  0  0  0
   -0.6190   -2.8270    0.3460 C   0  0  0  0  0  0  0  0  0  0  0  0
    1.0840    0.5080    1.0160 O   0  0  0  0  0  0  0  0  0  0  0  0
    3.5210    3.3720   -0.4110 C   0  0  0  0  0  0  0  0  0  0  0  0
   -0.3880   -1.4260    0.9240 C   0  0  0  0  0  0  0  0  0  0  0  0
    2.0510   -1.7400    0.8500 C   0  0  0  0  0  0  0  0  0  0  0  0
    3.4250    2.1450   -1.0610 C   0  0  0  0  0  0  0  0  0  0  0  0
    2.7550    3.5740    0.7330 C   0  0  0  0  0  0  0  0  0  0  0  0
    0.9160   -0.8040    0.4350 C   0  0  0  0  0  0  0  0  0  0  0  0
    4.5670    4.6130   -1.0100 Cl  0  0  0  0  0  0  0  0  0  0  0  0
   -2.5620   -8.8450   -0.8640 C   0  0  0  0  0  0  0  0  0  0  0  0
  1  2  1  0  0  0  0
  1  3  2  0  0  0  0
  1  4  1  0  0  0  0
  2  6  1  0  0  0  0
  2 12  1  0  0  0  0
  3  5  1  0  0  0  0
  4  7  1  0  0  0  0
  4  8  2  0  0  0  0
  5  6  2  0  0  0  0
  6 24  1  0  0  0  0
  7 14  1  0  0  0  0
  7 15  1  0  0  0  0
  8 13  1  0  0  0  0
  9 10  1  0  0  0  0
  9 11  2  0  0  0  0
  9 16  1  0  0  0  0
 10 21  2  0  0  0  0
 11 20  1  0  0  0  0
 12 13  2  0  0  0  0
 14 19  1  0  0  0  0
 15 18  1  0  0  0  0
 16 22  1  0  0  0  0
 17 20  2  0  0  0  0
 17 21  1  0  0  0  0
 17 23  1  0  0  0  0
 18 22  1  0  0  0  0
 19 22  1  0  0  0  0
M  END
>  <NScode>
NS-024767338-0000

>  <a_acc>
5

>  <a_don>
0

>  <chiral>
0

>  <opr_nrot>
5

>  <Weight>
345.79401

>  <druglike>
1

>  <lip_druglike>
1

>  <lip_violation>
0

>  <logS>
-2.6605599

$$$$
