NS-016989769-0000
  MOE2022           3D

 30 32  0  0  1  0  0  0  0  0999 V2000
   -0.4020   -1.8010    1.3560 S   0  0  0  0  0  0  0  0  0  0  0  0
    0.0110   -3.3150    0.4270 C   0  0  0  0  0  0  0  0  0  0  0  0
   -0.8900   -0.7140    0.2040 N   0  0  0  0  0  0  0  0  0  0  0  0
    3.1320   -5.1350   -0.5270 N   0  3  0  0  0  0  0  0  0  0  0  0
   -1.3410    3.9430   -0.6190 C   0  0  0  0  0  0  0  0  0  0  0  0
   -0.8500    5.0910   -0.0840 N   0  0  0  0  0  0  0  0  0  0  0  0
    1.3610   -3.6530    0.3030 C   0  0  0  0  0  0  0  0  0  0  0  0
    1.7210   -4.8070   -0.3870 C   0  0  0  0  0  0  0  0  0  0  0  0
   -0.9640   -4.1600   -0.1560 C   0  0  0  0  0  0  0  0  0  0  0  0
   -0.5770   -5.3330   -0.8320 C   0  0  0  0  0  0  0  0  0  0  0  0
    0.2890    2.0450    0.0820 N   0  0  0  0  0  0  0  0  0  0  0  0
   -1.4920   -2.0700    2.2290 O   0  0  0  0  0  0  0  0  0  0  0  0
    0.7850   -1.3110    1.9670 O   0  0  0  0  0  0  0  0  0  0  0  0
    0.7720   -5.6540   -0.9510 C   0  0  0  0  0  0  0  0  0  0  0  0
   -0.3890    2.7940   -1.0360 C   0  0  0  0  0  0  0  0  0  0  0  0
   -1.6230    0.4780    0.6740 C   0  0  0  0  0  0  0  0  0  0  0  0
    0.0770   -0.3240   -0.8430 C   0  0  0  0  0  0  0  0  0  0  0  0
    3.4840   -6.2900   -0.6990 O   0  5  0  0  0  0  0  0  0  0  0  0
    3.9700   -4.2500   -0.4850 O   0  0  0  0  0  0  0  0  0  0  0  0
   -2.5390    3.7380   -0.8000 O   0  0  0  0  0  0  0  0  0  0  0  0
   -1.6150    6.3360    0.1890 C   0  0  3  0  0  0  0  0  0  0  0  0
   -0.6790    1.6140    1.1340 C   0  0  0  0  0  0  0  0  0  0  0  0
    1.0090    0.8460   -0.4220 C   0  0  0  0  0  0  0  0  0  0  0  0
    0.6000    5.3330    0.0520 C   0  0  0  0  0  0  0  0  0  0  0  0
   -2.4430   -3.8010   -0.0290 C   0  0  0  0  0  0  0  0  0  0  0  0
   -1.5870   -6.2860   -1.4490 C   0  0  0  0  0  0  0  0  0  0  0  0
   -3.1380    6.2200    0.3390 C   0  0  0  0  0  0  0  0  0  0  0  0
   -1.2220    7.4120   -0.8410 C   0  0  0  0  0  0  0  0  0  0  0  0
    1.0750    6.3850   -0.9620 C   0  0  0  0  0  0  0  0  0  0  0  0
    0.2900    7.7020   -0.8390 C   0  0  0  0  0  0  0  0  0  0  0  0
  1  2  1  0  0  0  0
  1  3  1  0  0  0  0
  1 12  2  0  0  0  0
  1 13  2  0  0  0  0
  2  7  2  0  0  0  0
  2  9  1  0  0  0  0
  3 16  1  0  0  0  0
  3 17  1  0  0  0  0
  4  8  1  0  0  0  0
  4 18  1  0  0  0  0
  4 19  2  0  0  0  0
  5  6  1  0  0  0  0
  5 15  1  0  0  0  0
  5 20  2  0  0  0  0
  6 21  1  0  0  0  0
  6 24  1  0  0  0  0
  7  8  1  0  0  0  0
  8 14  2  0  0  0  0
  9 10  2  0  0  0  0
  9 25  1  0  0  0  0
 10 14  1  0  0  0  0
 10 26  1  0  0  0  0
 11 15  1  0  0  0  0
 11 22  1  0  0  0  0
 11 23  1  0  0  0  0
 16 22  1  0  0  0  0
 17 23  1  0  0  0  0
 21 27  1  0  0  0  0
 21 28  1  0  0  0  0
 24 29  1  0  0  0  0
 28 30  1  0  0  0  0
 29 30  1  0  0  0  0
M  CHG  1   4   1
M  CHG  1  18  -1
M  END
>  <NScode>
NS-016989769-0000

>  <a_acc>
4

>  <a_don>
0

>  <chiral>
1

>  <opr_nrot>
8

>  <Weight>
438.54898

>  <druglike>
1

>  <lip_druglike>
1

>  <lip_violation>
0

>  <logS>
-3.9177301

$$$$
