NS-020190599-0000
  MOE2022           3D

 26 27  0  0  0  0  0  0  0  0999 V2000
    1.9660   -3.2140    0.8650 S   0  0  0  0  0  0  0  0  0  0  0  0
    0.4850   -3.8040   -0.0640 C   0  0  0  0  0  0  0  0  0  0  0  0
    1.3820   -3.2700    2.6690 C   0  0  0  0  0  0  0  0  0  0  0  0
   -0.5470   -2.9190   -0.4200 C   0  0  0  0  0  0  0  0  0  0  0  0
   -0.5490   -1.5630    0.0890 C   0  0  0  0  0  0  0  0  0  0  0  0
   -0.4920   -0.5290   -0.8090 N   0  0  0  0  0  0  0  0  0  0  0  0
   -0.2970    0.8280   -0.4570 C   0  0  0  0  0  0  0  0  0  0  0  0
    2.2710   -1.8830    0.4520 O   0  0  0  0  0  0  0  0  0  0  0  0
    3.0310   -4.1440    0.6720 O   0  0  0  0  0  0  0  0  0  0  0  0
    0.4190   -5.0940   -0.4580 N   0  0  0  0  0  0  0  0  0  0  0  0
    0.0750    3.5070    0.2050 C   0  0  0  0  0  0  0  0  0  0  0  0
    0.7240    1.5510   -1.0860 C   0  0  0  0  0  0  0  0  0  0  0  0
    0.9030    2.8900   -0.7480 C   0  0  0  0  0  0  0  0  0  0  0  0
   -0.5550   -1.3400    1.2870 O   0  0  0  0  0  0  0  0  0  0  0  0
    0.2530    4.8770    0.5620 N   0  0  0  0  0  0  0  0  0  0  0  0
   -1.1210    1.4250    0.4960 C   0  0  0  0  0  0  0  0  0  0  0  0
   -0.9310    2.7590    0.8310 C   0  0  0  0  0  0  0  0  0  0  0  0
    2.0930   -4.1080    3.4650 F   0  0  0  0  0  0  0  0  0  0  0  0
    1.4300   -2.0980    3.3450 F   0  0  0  0  0  0  0  0  0  0  0  0
    0.1060   -3.7040    2.8430 F   0  0  0  0  0  0  0  0  0  0  0  0
   -1.6040   -3.3720   -1.2140 C   0  0  0  0  0  0  0  0  0  0  0  0
   -0.5940   -5.5440   -1.1960 C   0  0  0  0  0  0  0  0  0  0  0  0
    1.6500    0.9020   -2.0980 C   0  0  0  0  0  0  0  0  0  0  0  0
   -0.9580    5.6420    0.9070 C   0  0  0  0  0  0  0  0  0  0  0  0
    1.2810    5.6820   -0.1170 C   0  0  0  0  0  0  0  0  0  0  0  0
   -1.6210   -4.7020   -1.6010 C   0  0  0  0  0  0  0  0  0  0  0  0
  1  2  1  0  0  0  0
  1  3  1  0  0  0  0
  1  8  2  0  0  0  0
  1  9  2  0  0  0  0
  2  4  2  0  0  0  0
  2 10  1  0  0  0  0
  3 18  1  0  0  0  0
  3 19  1  0  0  0  0
  3 20  1  0  0  0  0
  4  5  1  0  0  0  0
  4 21  1  0  0  0  0
  5  6  1  0  0  0  0
  5 14  2  0  0  0  0
  6  7  1  0  0  0  0
  7 12  2  0  0  0  0
  7 16  1  0  0  0  0
 10 22  2  0  0  0  0
 11 13  2  0  0  0  0
 11 15  1  0  0  0  0
 11 17  1  0  0  0  0
 12 13  1  0  0  0  0
 12 23  1  0  0  0  0
 15 24  1  0  0  0  0
 15 25  1  0  0  0  0
 16 17  2  0  0  0  0
 21 26  2  0  0  0  0
 22 26  1  0  0  0  0
M  END
>  <NScode>
NS-020190599-0000

>  <a_acc>
4

>  <a_don>
1

>  <chiral>
0

>  <opr_nrot>
4

>  <Weight>
387.38199

>  <druglike>
1

>  <lip_druglike>
1

>  <lip_violation>
0

>  <logS>
-3.7755101

$$$$
