NS-042215789-0000
  MOE2022           3D

 17 18  0  0  0  0  0  0  0  0999 V2000
   -4.2850    5.8670   -0.4730 C   0  0  0  0  0  0  0  0  0  0  0  0
   -2.8560    5.7270   -0.2400 O   0  0  0  0  0  0  0  0  0  0  0  0
   -2.2190    4.5310   -0.3930 C   0  0  0  0  0  0  0  0  0  0  0  0
   -2.9000    3.5750   -0.7470 O   0  0  0  0  0  0  0  0  0  0  0  0
   -0.7910    4.5000   -0.1210 C   0  0  0  0  0  0  0  0  0  0  0  0
    0.0480    5.5050    0.2620 C   0  0  0  0  0  0  0  0  0  0  0  0
    1.3230    4.9570    0.3960 C   0  0  0  0  0  0  0  0  0  0  0  0
    1.2360    3.6390    0.0900 C   0  0  0  0  0  0  0  0  0  0  0  0
   -0.0520    3.3460   -0.2250 O   0  0  0  0  0  0  0  0  0  0  0  0
    2.3150    2.5610    0.0820 C   0  0  0  0  0  0  0  0  0  0  0  0
    2.1840    1.5190   -1.0830 C   0  0  0  0  0  0  0  0  0  0  0  0
    2.3850    0.3730   -0.0640 C   0  0  0  0  0  0  0  0  0  0  0  0
    1.4950   -0.7530   -0.2050 O   0  0  0  0  0  0  0  0  0  0  0  0
    2.0440    1.3750    1.0650 C   0  0  0  0  0  0  0  0  0  0  0  0
    3.7160    3.1520    0.2500 C   0  0  0  0  0  0  0  0  0  0  0  0
    4.5290    3.1040   -0.7050 O   0  5  0  0  0  0  0  0  0  0  0  0
    4.0300    3.6680    1.3500 O   0  0  0  0  0  0  0  0  0  0  0  0
  1  2  1  0  0  0  0
  2  3  1  0  0  0  0
  3  4  2  0  0  0  0
  3  5  1  0  0  0  0
  5  6  2  0  0  0  0
  5  9  1  0  0  0  0
  6  7  1  0  0  0  0
  7  8  2  0  0  0  0
  8  9  1  0  0  0  0
  8 10  1  0  0  0  0
 10 11  1  0  0  0  0
 10 14  1  0  0  0  0
 10 15  1  0  0  0  0
 11 12  1  0  0  0  0
 12 13  1  0  0  0  0
 12 14  1  0  0  0  0
 15 16  1  0  0  0  0
 15 17  2  0  0  0  0
M  CHG  1  16  -1
M  END
>  <NScode>
NS-042215789-0000

>  <a_acc>
3

>  <a_don>
3

>  <chiral>
0

>  <opr_nrot>
3

>  <Weight>
240.211

>  <druglike>
1

>  <lip_druglike>
1

>  <lip_violation>
0

>  <logS>
-1.80093

$$$$
