NS-021023739-0000
  MOE2022           3D

 19 21  0  0  1  0  0  0  0  0999 V2000
   -2.7490   -3.2940   -0.1360 C   0  0  0  0  0  0  0  0  0  0  0  0
   -2.2140   -2.2680    0.7460 N   0  0  0  0  0  0  0  0  0  0  0  0
   -2.6800   -1.9900    1.9750 C   0  0  0  0  0  0  0  0  0  0  0  0
   -1.9030   -0.9930    2.4510 C   0  0  0  0  0  0  0  0  0  0  0  0
   -0.9610   -0.6480    1.5350 N   0  0  0  0  0  0  0  0  0  0  0  0
   -1.1610   -1.4350    0.5090 C   0  0  0  0  0  0  0  0  0  0  0  0
   -0.3880   -1.4630   -0.8060 C   0  0  2  0  0  0  0  0  0  0  0  0
   -0.0250   -2.8270   -1.2140 O   0  0  0  0  0  0  0  0  0  0  0  0
    1.3410   -2.9000   -1.6760 C   0  0  0  0  0  0  0  0  0  0  0  0
    1.8340   -1.4610   -1.7630 C   0  0  0  0  0  0  0  0  0  0  0  0
    0.9330   -0.6920   -0.7890 C   0  0  1  0  0  0  0  0  0  0  0  0
    0.7340    0.7720   -1.1240 C   0  0  0  0  0  0  0  0  0  0  0  0
    0.0690    1.1130   -2.0960 O   0  0  0  0  0  0  0  0  0  0  0  0
    1.3290    1.7360   -0.3510 N   0  0  0  0  0  0  0  0  0  0  0  0
    1.1180    3.1750   -0.5220 C   0  0  0  0  0  0  0  0  0  0  0  0
    0.5850    3.8120    0.7720 C   0  0  0  0  0  0  0  0  0  0  0  0
    1.4440    3.4270    1.9880 C   0  0  0  0  0  0  0  0  0  0  0  0
    1.6170    1.9010    2.0200 C   0  0  0  0  0  0  0  0  0  0  0  0
    2.1370    1.4020    0.7570 O   0  0  0  0  0  0  0  0  0  0  0  0
  1  2  1  0  0  0  0
  2  3  1  0  0  0  0
  2  6  1  0  0  0  0
  3  4  2  0  0  0  0
  4  5  1  0  0  0  0
  5  6  2  0  0  0  0
  6  7  1  0  0  0  0
  7  8  1  0  0  0  0
  7 11  1  0  0  0  0
  8  9  1  0  0  0  0
  9 10  1  0  0  0  0
 10 11  1  0  0  0  0
 11 12  1  0  0  0  0
 12 13  2  0  0  0  0
 12 14  1  0  0  0  0
 14 15  1  0  0  0  0
 14 19  1  0  0  0  0
 15 16  1  0  0  0  0
 16 17  1  0  0  0  0
 17 18  1  0  0  0  0
 18 19  1  0  0  0  0
M  END
>  <NScode>
NS-021023739-0000

>  <a_acc>
4

>  <a_don>
0

>  <chiral>
2

>  <opr_nrot>
5

>  <Weight>
265.31299

>  <druglike>
1

>  <lip_druglike>
1

>  <lip_violation>
0

>  <logS>
-0.81173998

$$$$
