NS-019668216-0000
  MOE2022           3D

 26 29  0  0  0  0  0  0  0  0999 V2000
   -3.9290    4.0220    0.8180 N   0  0  0  0  0  0  0  0  0  0  0  0
   -3.2910    3.5000   -0.2510 C   0  0  0  0  0  0  0  0  0  0  0  0
   -3.6710    4.0210   -1.3560 N   0  0  0  0  0  0  0  0  0  0  0  0
    2.1660   -4.4920   -0.1470 C   0  0  0  0  0  0  0  0  0  0  0  0
    1.4170   -1.3780    0.0520 C   0  0  0  0  0  0  0  0  0  0  0  0
    2.4300   -2.0990    0.6570 N   0  0  0  0  0  0  0  0  0  0  0  0
    0.9620   -5.7110   -1.6500 N   0  0  0  0  0  0  0  0  0  0  0  0
    2.7440   -3.4920    0.6690 C   0  0  0  0  0  0  0  0  0  0  0  0
   -4.6990    4.8860    0.2940 C   0  0  0  0  0  0  0  0  0  0  0  0
    1.1840   -4.4740   -1.0980 N   0  0  0  0  0  0  0  0  0  0  0  0
   -4.5750    4.9150   -1.0170 O   0  0  0  0  0  0  0  0  0  0  0  0
    2.5680   -5.8070   -0.0940 C   0  0  0  0  0  0  0  0  0  0  0  0
    1.4320    0.0820    0.2000 C   0  0  0  0  0  0  0  0  0  0  0  0
    0.5330   -1.9640   -0.5560 O   0  0  0  0  0  0  0  0  0  0  0  0
    1.7940   -6.4990   -1.0430 C   0  0  0  0  0  0  0  0  0  0  0  0
    0.2280    0.7960    0.1160 C   0  0  0  0  0  0  0  0  0  0  0  0
   -2.2420    2.4100   -0.1570 C   0  0  0  0  0  0  0  0  0  0  0  0
   -0.9210    2.9270    0.1860 O   0  0  0  0  0  0  0  0  0  0  0  0
    0.2300    2.1810    0.2650 C   0  0  0  0  0  0  0  0  0  0  0  0
    3.7380   -3.8800    1.5570 C   0  0  0  0  0  0  0  0  0  0  0  0
    3.5800   -6.1900    0.8100 C   0  0  0  0  0  0  0  0  0  0  0  0
    2.6270    0.7920    0.4180 C   0  0  0  0  0  0  0  0  0  0  0  0
   -5.6660    5.8090    0.9860 C   0  0  0  0  0  0  0  0  0  0  0  0
    4.1530   -5.2310    1.6260 C   0  0  0  0  0  0  0  0  0  0  0  0
    2.6130    2.1760    0.5720 C   0  0  0  0  0  0  0  0  0  0  0  0
    1.4130    2.8740    0.4990 C   0  0  0  0  0  0  0  0  0  0  0  0
  1  2  1  0  0  0  0
  1  9  2  0  0  0  0
  2  3  2  0  0  0  0
  2 17  1  0  0  0  0
  3 11  1  0  0  0  0
  4  8  2  0  0  0  0
  4 10  1  0  0  0  0
  4 12  1  0  0  0  0
  5  6  1  0  0  0  0
  5 13  1  0  0  0  0
  5 14  2  0  0  0  0
  6  8  1  0  0  0  0
  7 10  1  0  0  0  0
  7 15  2  0  0  0  0
  8 20  1  0  0  0  0
  9 11  1  0  0  0  0
  9 23  1  0  0  0  0
 12 15  1  0  0  0  0
 12 21  2  0  0  0  0
 13 16  2  0  0  0  0
 13 22  1  0  0  0  0
 16 19  1  0  0  0  0
 17 18  1  0  0  0  0
 18 19  1  0  0  0  0
 19 26  2  0  0  0  0
 20 24  2  0  0  0  0
 21 24  1  0  0  0  0
 22 25  2  0  0  0  0
 25 26  1  0  0  0  0
M  END
>  <NScode>
NS-019668216-0000

>  <a_acc>
6

>  <a_don>
3

>  <chiral>
0

>  <opr_nrot>
5

>  <Weight>
349.35001

>  <druglike>
1

>  <lip_druglike>
1

>  <lip_violation>
0

>  <logS>
-4.5613499

$$$$
