NS-013184983-0000
  MOE2022           3D

 24 26  0  0  1  0  0  0  0  0999 V2000
   -2.2720    0.7800    0.2910 N   0  0  0  0  0  0  0  0  0  0  0  0
   -1.8050   -0.0830   -0.6660 C   0  0  0  0  0  0  0  0  0  0  0  0
   -3.0240    0.1120    1.2240 C   0  0  0  0  0  0  0  0  0  0  0  0
   -2.1830   -1.5200   -0.3090 C   0  0  3  0  0  0  0  0  0  0  0  0
   -3.1740   -1.3290    0.8400 C   0  0  0  0  0  0  0  0  0  0  0  0
   -2.0820    2.1860    0.2690 C   0  0  0  0  0  0  0  0  0  0  0  0
   -1.0610   -2.4260    0.1280 N   0  0  0  0  0  0  0  0  0  0  0  0
   -1.2280    0.3020   -1.6660 O   0  0  0  0  0  0  0  0  0  0  0  0
   -3.4770    0.6430    2.2130 O   0  0  0  0  0  0  0  0  0  0  0  0
    0.1510   -2.2730   -0.7290 C   0  0  0  0  0  0  0  0  0  0  0  0
   -3.1290    3.0270   -0.1270 C   0  0  0  0  0  0  0  0  0  0  0  0
    1.3050   -3.1630   -0.3060 C   0  0  0  0  0  0  0  0  0  0  0  0
   -4.3390    2.4570   -0.5080 O   0  0  0  0  0  0  0  0  0  0  0  0
   -1.5040   -3.8400    0.1310 C   0  0  0  0  0  0  0  0  0  0  0  0
   -0.8460    2.7080    0.6460 C   0  0  0  0  0  0  0  0  0  0  0  0
   -2.9350    4.4090   -0.1380 C   0  0  0  0  0  0  0  0  0  0  0  0
    1.7850   -3.1080    1.0010 C   0  0  0  0  0  0  0  0  0  0  0  0
    1.9030   -4.0330   -1.2180 C   0  0  0  0  0  0  0  0  0  0  0  0
   -5.5540    3.2020   -0.7510 C   0  0  0  0  0  0  0  0  0  0  0  0
   -0.6600    4.0880    0.6310 C   0  0  0  0  0  0  0  0  0  0  0  0
   -1.7000    4.9340    0.2420 C   0  0  0  0  0  0  0  0  0  0  0  0
    2.9680   -4.8390   -0.8250 C   0  0  0  0  0  0  0  0  0  0  0  0
    2.8500   -3.9130    1.3950 C   0  0  0  0  0  0  0  0  0  0  0  0
    3.4420   -4.7790    0.4810 C   0  0  0  0  0  0  0  0  0  0  0  0
  1  2  1  0  0  0  0
  1  3  1  0  0  0  0
  1  6  1  0  0  0  0
  2  4  1  0  0  0  0
  2  8  2  0  0  0  0
  3  5  1  0  0  0  0
  3  9  2  0  0  0  0
  4  5  1  0  0  0  0
  4  7  1  0  0  0  0
  6 11  2  0  0  0  0
  6 15  1  0  0  0  0
  7 10  1  0  0  0  0
  7 14  1  0  0  0  0
 10 12  1  0  0  0  0
 11 13  1  0  0  0  0
 11 16  1  0  0  0  0
 12 17  1  0  0  0  0
 12 18  2  0  0  0  0
 13 19  1  0  0  0  0
 15 20  2  0  0  0  0
 16 21  2  0  0  0  0
 17 23  2  0  0  0  0
 18 22  1  0  0  0  0
 20 21  1  0  0  0  0
 22 24  2  0  0  0  0
 23 24  1  0  0  0  0
M  END
>  <NScode>
NS-013184983-0000

>  <a_acc>
4

>  <a_don>
0

>  <chiral>
1

>  <opr_nrot>
5

>  <Weight>
324.38

>  <druglike>
1

>  <lip_druglike>
1

>  <lip_violation>
0

>  <logS>
-3.6152201

$$$$
