NS-050196662-0000
  MOE2022           3D

 21 23  0  0  0  0  0  0  0  0999 V2000
   -6.1020    0.0700    0.8570 C   0  0  0  0  0  0  0  0  0  0  0  0
   -4.7420   -0.4190    0.8320 O   0  0  0  0  0  0  0  0  0  0  0  0
   -3.6840    0.2040    0.2110 C   0  0  0  0  0  0  0  0  0  0  0  0
   -3.8480    1.4210   -0.4900 C   0  0  0  0  0  0  0  0  0  0  0  0
   -2.7590    2.0070   -1.0960 C   0  0  0  0  0  0  0  0  0  0  0  0
   -1.4810    1.4070   -1.0260 C   0  0  0  0  0  0  0  0  0  0  0  0
   -0.4180    2.0150   -1.6390 N   0  0  0  0  0  0  0  0  0  0  0  0
    0.7670    1.4620   -1.5760 C   0  0  0  0  0  0  0  0  0  0  0  0
    2.0690    2.2960   -2.3700 Cl  0  0  0  0  0  0  0  0  0  0  0  0
    1.0060    0.2330   -0.8920 C   0  0  0  0  0  0  0  0  0  0  0  0
    2.4000   -0.3650   -0.8360 C   0  0  0  0  0  0  0  0  0  0  0  0
    3.1860    0.0230    0.3390 N   0  0  0  0  0  0  0  0  0  0  0  0
    3.0940    1.1820    1.0200 C   0  0  0  0  0  0  0  0  0  0  0  0
    4.0310    1.1190    1.9920 C   0  0  0  0  0  0  0  0  0  0  0  0
    4.7070   -0.0570    1.9220 N   0  0  0  0  0  0  0  0  0  0  0  0
    4.1850   -0.7030    0.9190 C   0  0  0  0  0  0  0  0  0  0  0  0
    4.6030   -2.0710    0.4220 C   0  0  0  0  0  0  0  0  0  0  0  0
    4.9810   -2.0300   -0.9730 O   0  0  0  0  0  0  0  0  0  0  0  0
   -0.0380   -0.3960   -0.2650 C   0  0  0  0  0  0  0  0  0  0  0  0
   -1.3270    0.1870   -0.3220 C   0  0  0  0  0  0  0  0  0  0  0  0
   -2.4530   -0.4040    0.2970 C   0  0  0  0  0  0  0  0  0  0  0  0
  1  2  1  0  0  0  0
  2  3  1  0  0  0  0
  3  4  1  0  0  0  0
  3 21  2  0  0  0  0
  4  5  2  0  0  0  0
  5  6  1  0  0  0  0
  6  7  1  0  0  0  0
  6 20  2  0  0  0  0
  7  8  2  0  0  0  0
  8  9  1  0  0  0  0
  8 10  1  0  0  0  0
 10 11  1  0  0  0  0
 10 19  2  0  0  0  0
 11 12  1  0  0  0  0
 12 13  1  0  0  0  0
 12 16  1  0  0  0  0
 13 14  2  0  0  0  0
 14 15  1  0  0  0  0
 15 16  2  0  0  0  0
 16 17  1  0  0  0  0
 17 18  1  0  0  0  0
 19 20  1  0  0  0  0
 20 21  1  0  0  0  0
M  END
>  <NScode>
NS-050196662-0000

>  <a_acc>
4

>  <a_don>
1

>  <chiral>
0

>  <opr_nrot>
4

>  <Weight>
303.74899

>  <druglike>
1

>  <lip_druglike>
1

>  <lip_violation>
0

>  <logS>
-2.9383199

$$$$
