NS-042513258-0000F6619-6947
  MOE2022           3D

 29 32  0  0  0  0  0  0  0  0999 V2000
   -5.2450    4.9660   -0.0660 N   0  0  0  0  0  0  0  0  0  0  0  0
   -4.2380    3.9060   -0.2090 C   0  0  0  0  0  0  0  0  0  0  0  0
   -4.8830    6.2580    0.2760 N   0  0  0  0  0  0  0  0  0  0  0  0
   -1.9690    3.2230   -0.3000 C   0  0  0  0  0  0  0  0  0  0  0  0
    4.4600    3.1270   -0.3580 N   0  0  0  0  0  0  0  0  0  0  0  0
   -4.6190    2.6300   -0.3940 N   0  0  0  0  0  0  0  0  0  0  0  0
   -6.6140    4.8890   -0.2410 C   0  0  0  0  0  0  0  0  0  0  0  0
   -2.3790    1.9690   -0.4820 N   0  0  0  0  0  0  0  0  0  0  0  0
   -2.8980    4.2440   -0.1500 C   0  0  0  0  0  0  0  0  0  0  0  0
    3.6940    4.1210   -0.7880 C   0  0  0  0  0  0  0  0  0  0  0  0
   -0.5890    3.4420   -0.2640 N   0  0  0  0  0  0  0  0  0  0  0  0
   -7.0760    6.1350    0.0010 C   0  0  0  0  0  0  0  0  0  0  0  0
    2.3200    3.9260   -0.8080 N   0  0  0  0  0  0  0  0  0  0  0  0
    5.7780    3.2980   -0.3290 C   0  0  0  0  0  0  0  0  0  0  0  0
   -3.6750    1.7100   -0.5230 C   0  0  0  0  0  0  0  0  0  0  0  0
   -5.9860    6.9380    0.3120 C   0  0  0  0  0  0  0  0  0  0  0  0
    6.3740    4.4280   -0.7140 N   0  0  0  0  0  0  0  0  0  0  0  0
    4.2620    5.3170   -1.2120 C   0  0  0  0  0  0  0  0  0  0  0  0
    0.3030    2.3800   -0.8220 C   0  0  0  0  0  0  0  0  0  0  0  0
   -0.0350    4.8060   -0.4770 C   0  0  0  0  0  0  0  0  0  0  0  0
    1.4710    4.9450   -0.1550 C   0  0  0  0  0  0  0  0  0  0  0  0
    1.8030    2.5650   -0.5090 C   0  0  0  0  0  0  0  0  0  0  0  0
    6.6580    2.1530    0.1670 C   0  0  0  0  0  0  0  0  0  0  0  0
    5.6320    5.4380   -1.1580 C   0  0  0  0  0  0  0  0  0  0  0  0
   -7.4000    3.6510   -0.6250 C   0  0  0  0  0  0  0  0  0  0  0  0
   -4.1010    0.2810   -0.7150 C   0  0  0  0  0  0  0  0  0  0  0  0
   -6.0330    8.4040    0.6530 C   0  0  0  0  0  0  0  0  0  0  0  0
    6.5320    0.8960   -0.7120 C   0  0  0  0  0  0  0  0  0  0  0  0
    6.3690    1.7880    1.6340 C   0  0  0  0  0  0  0  0  0  0  0  0
  1  2  1  0  0  0  0
  1  3  1  0  0  0  0
  1  7  1  0  0  0  0
  2  6  1  0  0  0  0
  2  9  2  0  0  0  0
  3 16  2  0  0  0  0
  4  8  2  0  0  0  0
  4  9  1  0  0  0  0
  4 11  1  0  0  0  0
  5 10  1  0  0  0  0
  5 14  2  0  0  0  0
  6 15  2  0  0  0  0
  7 12  2  0  0  0  0
  7 25  1  0  0  0  0
  8 15  1  0  0  0  0
 10 13  1  0  0  0  0
 10 18  2  0  0  0  0
 11 19  1  0  0  0  0
 11 20  1  0  0  0  0
 12 16  1  0  0  0  0
 13 21  1  0  0  0  0
 13 22  1  0  0  0  0
 14 17  1  0  0  0  0
 14 23  1  0  0  0  0
 15 26  1  0  0  0  0
 16 27  1  0  0  0  0
 17 24  2  0  0  0  0
 18 24  1  0  0  0  0
 19 22  1  0  0  0  0
 20 21  1  0  0  0  0
 23 28  1  0  0  0  0
 23 29  1  0  0  0  0
M  END
>  <NScode>
NS-042513258-0000

>  <a_acc>
5

>  <a_don>
0

>  <chiral>
0

>  <opr_nrot>
6

>  <Weight>
392.51099

>  <druglike>
1

>  <lip_druglike>
1

>  <lip_violation>
0

>  <logS>
-3.0911901

$$$$
