NS-022316195-0000
  MOE2022           3D

 24 26  0  0  0  0  0  0  0  0999 V2000
    4.9800    3.3270    0.1800 C   0  0  0  0  0  0  0  0  0  0  0  0
    3.7100    3.3070    1.0240 C   0  0  0  0  0  0  0  0  0  0  0  0
    2.5630    3.7360    0.2360 O   0  0  0  0  0  0  0  0  0  0  0  0
    1.4970    2.7700   -0.1130 C   0  0  0  0  0  0  0  0  0  0  0  0
    0.4710    3.4880   -1.0020 C   0  0  0  0  0  0  0  0  0  0  0  0
    1.9770    1.3820   -0.6430 C   0  0  0  0  0  0  0  0  0  0  0  0
    1.2910    0.7010    0.4670 N   0  0  0  0  0  0  0  0  0  0  0  0
    0.8940    1.9760    1.0860 C   0  0  0  0  0  0  0  0  0  0  0  0
    1.9440   -0.5380    1.3140 S   0  0  0  0  0  0  0  0  0  0  0  0
    1.0170   -0.9560    2.3050 O   0  0  0  0  0  0  0  0  0  0  0  0
    3.2360   -0.1580    1.7650 O   0  0  0  0  0  0  0  0  0  0  0  0
    2.1200   -1.8360    0.1110 C   0  0  0  0  0  0  0  0  0  0  0  0
    3.2040   -2.3610   -0.5090 C   0  0  0  0  0  0  0  0  0  0  0  0
    2.7460   -3.3740   -1.3360 C   0  0  0  0  0  0  0  0  0  0  0  0
    1.4510   -3.4900   -1.2510 N   0  0  0  0  0  0  0  0  0  0  0  0
    1.0620   -2.5400   -0.3560 N   0  0  0  0  0  0  0  0  0  0  0  0
   -0.3480   -2.3600    0.0150 C   0  0  0  0  0  0  0  0  0  0  0  0
   -1.3670   -2.8860   -1.0070 C   0  0  0  0  0  0  0  0  0  0  0  0
   -2.7880   -2.5220   -0.6260 C   0  0  0  0  0  0  0  0  0  0  0  0
   -3.5270   -3.3590    0.2310 C   0  0  0  0  0  0  0  0  0  0  0  0
   -4.8400   -3.0130    0.5970 C   0  0  0  0  0  0  0  0  0  0  0  0
   -5.4170   -1.8280    0.1090 C   0  0  0  0  0  0  0  0  0  0  0  0
   -4.6810   -0.9890   -0.7460 C   0  0  0  0  0  0  0  0  0  0  0  0
   -3.3680   -1.3350   -1.1120 C   0  0  0  0  0  0  0  0  0  0  0  0
  1  2  1  0  0  0  0
  2  3  1  0  0  0  0
  3  4  1  0  0  0  0
  4  5  1  0  0  0  0
  4  6  1  0  0  0  0
  4  8  1  0  0  0  0
  6  7  1  0  0  0  0
  7  8  1  0  0  0  0
  7  9  1  0  0  0  0
  9 10  2  0  0  0  0
  9 11  2  0  0  0  0
  9 12  1  0  0  0  0
 12 13  2  0  0  0  0
 12 16  1  0  0  0  0
 13 14  1  0  0  0  0
 14 15  2  0  0  0  0
 15 16  1  0  0  0  0
 16 17  1  0  0  0  0
 17 18  1  0  0  0  0
 18 19  1  0  0  0  0
 19 20  1  0  0  0  0
 19 24  2  0  0  0  0
 20 21  2  0  0  0  0
 21 22  1  0  0  0  0
 22 23  2  0  0  0  0
 23 24  1  0  0  0  0
M  END
>  <NScode>
NS-022316195-0000

>  <a_acc>
4

>  <a_don>
0

>  <chiral>
0

>  <opr_nrot>
6

>  <Weight>
349.45499

>  <druglike>
1

>  <lip_druglike>
1

>  <lip_violation>
0

>  <logS>
-2.7150199

$$$$
