NS-023580895-0000
  MOE2022           3D

 18 20  0  0  0  0  0  0  0  0999 V2000
   -1.9900    1.4370   -1.9280 C   0  0  0  0  0  0  0  0  0  0  0  0
   -2.0420    1.6160   -0.3930 C   0  0  0  0  0  0  0  0  0  0  0  0
   -0.8120    1.0110    0.3160 C   0  0  0  0  0  0  0  0  0  0  0  0
   -0.5040   -0.3710   -0.0900 N   0  0  0  0  0  0  0  0  0  0  0  0
    0.8350   -0.8300   -0.2580 C   0  0  0  0  0  0  0  0  0  0  0  0
    1.8650   -0.0380   -0.7740 C   0  0  0  0  0  0  0  0  0  0  0  0
    3.1380   -0.5850   -0.9180 C   0  0  0  0  0  0  0  0  0  0  0  0
    3.3810   -1.9150   -0.5570 C   0  0  0  0  0  0  0  0  0  0  0  0
    4.9650   -2.5810   -0.7410 Cl  0  0  0  0  0  0  0  0  0  0  0  0
    2.3480   -2.7090   -0.0490 C   0  0  0  0  0  0  0  0  0  0  0  0
    1.0790   -2.1620    0.0970 C   0  0  0  0  0  0  0  0  0  0  0  0
   -0.1420   -2.8460    0.6380 C   0  0  0  0  0  0  0  0  0  0  0  0
   -1.3730   -1.5830    0.6660 S   0  0  0  0  0  0  0  0  0  0  0  0
   -2.4720   -1.9450   -0.1540 O   0  0  0  0  0  0  0  0  0  0  0  0
   -1.6390   -1.2050    2.0080 O   0  0  0  0  0  0  0  0  0  0  0  0
   -3.4120    1.2480    0.2620 C   0  0  0  0  0  0  0  0  0  0  0  0
   -3.5790    2.6340    0.6620 O   0  0  0  0  0  0  0  0  0  0  0  0
   -2.3390    3.0770    0.0650 C   0  0  0  0  0  0  0  0  0  0  0  0
  1  2  1  0  0  0  0
  2  3  1  0  0  0  0
  2 16  1  0  0  0  0
  2 18  1  0  0  0  0
  3  4  1  0  0  0  0
  4  5  1  0  0  0  0
  4 13  1  0  0  0  0
  5  6  1  0  0  0  0
  5 11  2  0  0  0  0
  6  7  2  0  0  0  0
  7  8  1  0  0  0  0
  8  9  1  0  0  0  0
  8 10  2  0  0  0  0
 10 11  1  0  0  0  0
 11 12  1  0  0  0  0
 12 13  1  0  0  0  0
 13 14  2  0  0  0  0
 13 15  2  0  0  0  0
 16 17  1  0  0  0  0
 17 18  1  0  0  0  0
M  END
>  <NScode>
NS-023580895-0000

>  <a_acc>
3

>  <a_don>
0

>  <chiral>
0

>  <opr_nrot>
2

>  <Weight>
287.767

>  <druglike>
1

>  <lip_druglike>
1

>  <lip_violation>
0

>  <logS>
-2.72471

$$$$
