NS-005966472-0000
  MOE2022           3D

 24 26  0  0  0  0  0  0  0  0999 V2000
   -0.2510   -0.4360    0.1660 C   0  0  0  0  0  0  0  0  0  0  0  0
   -0.2410   -1.8870    0.1870 C   0  0  0  0  0  0  0  0  0  0  0  0
    0.9580    0.1890   -0.0660 O   0  0  0  0  0  0  0  0  0  0  0  0
   -1.2950    0.2870    0.3620 N   0  0  0  0  0  0  0  0  0  0  0  0
    0.9320   -2.5790    0.0650 C   0  0  0  0  0  0  0  0  0  0  0  0
   -1.5050   -2.5810    0.3320 C   0  0  0  0  0  0  0  0  0  0  0  0
    2.1480   -0.4750   -0.2030 C   0  0  0  0  0  0  0  0  0  0  0  0
   -1.3000    1.7010    0.4030 C   0  0  0  0  0  0  0  0  0  0  0  0
    2.1690   -1.8790   -0.1290 C   0  0  0  0  0  0  0  0  0  0  0  0
   -1.7230   -3.3500    1.4180 N   0  0  0  0  0  0  0  0  0  0  0  0
   -2.3990   -2.5800   -0.4930 O   0  0  0  0  0  0  0  0  0  0  0  0
    3.3060    0.2770   -0.4090 C   0  0  0  0  0  0  0  0  0  0  0  0
   -2.2970    2.3800   -0.3000 C   0  0  0  0  0  0  0  0  0  0  0  0
   -0.3740    2.4390    1.1490 C   0  0  0  0  0  0  0  0  0  0  0  0
    3.3980   -2.5380   -0.2630 C   0  0  0  0  0  0  0  0  0  0  0  0
    4.5250   -0.3770   -0.5430 C   0  0  0  0  0  0  0  0  0  0  0  0
   -2.3590    3.7710   -0.2880 C   0  0  0  0  0  0  0  0  0  0  0  0
   -0.4330    3.8280    1.1660 C   0  0  0  0  0  0  0  0  0  0  0  0
    4.5550   -1.7800   -0.4670 C   0  0  0  0  0  0  0  0  0  0  0  0
   -1.4220    4.4930    0.4480 C   0  0  0  0  0  0  0  0  0  0  0  0
   -3.4460    4.4940   -1.0510 C   0  0  0  0  0  0  0  0  0  0  0  0
    5.8330   -2.4680   -0.6090 N   0  3  0  0  0  0  0  0  0  0  0  0
    6.8140   -1.8690   -1.0180 O   0  5  0  0  0  0  0  0  0  0  0  0
    5.9330   -3.6490   -0.3180 O   0  0  0  0  0  0  0  0  0  0  0  0
  1  2  1  0  0  0  0
  1  3  1  0  0  0  0
  1  4  2  0  0  0  0
  2  5  2  0  0  0  0
  2  6  1  0  0  0  0
  3  7  1  0  0  0  0
  4  8  1  0  0  0  0
  5  9  1  0  0  0  0
  6 10  1  0  0  0  0
  6 11  2  0  0  0  0
  7  9  1  0  0  0  0
  7 12  2  0  0  0  0
  8 13  1  0  0  0  0
  8 14  2  0  0  0  0
  9 15  2  0  0  0  0
 12 16  1  0  0  0  0
 13 17  2  0  0  0  0
 14 18  1  0  0  0  0
 15 19  1  0  0  0  0
 16 19  2  0  0  0  0
 17 20  1  0  0  0  0
 17 21  1  0  0  0  0
 18 20  2  0  0  0  0
 19 22  1  0  0  0  0
 22 23  1  0  0  0  0
 22 24  2  0  0  0  0
M  CHG  1  22   1
M  CHG  1  23  -1
M  END
>  <NScode>
NS-005966472-0000

>  <a_acc>
2

>  <a_don>
1

>  <chiral>
0

>  <opr_nrot>
3

>  <Weight>
323.30798

>  <druglike>
1

>  <lip_druglike>
1

>  <lip_violation>
0

>  <logS>
-6.24193

$$$$
