NS-013609712-0000
  MOE2022           3D

 31 32  0  0  0  0  0  0  0  0999 V2000
    1.9070    0.1170    0.8900 S   0  0  0  0  0  0  0  0  0  0  0  0
    2.5490   -0.8160   -0.3380 N   0  0  0  0  0  0  0  0  0  0  0  0
    2.5050   -2.2390   -0.2700 C   0  0  0  0  0  0  0  0  0  0  0  0
    2.8720   -5.0510    2.3070 C   0  0  0  0  0  0  0  0  0  0  0  0
    7.0400    2.3260   -0.4910 C   0  0  0  0  0  0  0  0  0  0  0  0
    3.8780   -0.2670   -0.7360 C   0  0  0  0  0  0  0  0  0  0  0  0
    2.6850   -2.9260    0.9350 C   0  0  0  0  0  0  0  0  0  0  0  0
    5.0900   -0.5830    0.1570 C   0  0  0  0  0  0  0  0  0  0  0  0
    5.9810    1.7380    0.2380 C   0  0  0  0  0  0  0  0  0  0  0  0
    2.6480   -4.3250    0.9740 C   0  0  0  0  0  0  0  0  0  0  0  0
    8.2330    1.5910   -0.9060 C   0  0  0  0  0  0  0  0  0  0  0  0
    5.9920    0.3650    0.5440 N   0  0  0  0  0  0  0  0  0  0  0  0
    1.7400    1.4370    0.4050 O   0  0  0  0  0  0  0  0  0  0  0  0
    2.7010   -0.0280    2.0530 O   0  0  0  0  0  0  0  0  0  0  0  0
    2.2910   -2.9650   -1.4590 C   0  0  0  0  0  0  0  0  0  0  0  0
    5.3870   -1.7120    0.4820 O   0  0  0  0  0  0  0  0  0  0  0  0
    8.9250    1.9150   -1.8610 O   0  0  0  0  0  0  0  0  0  0  0  0
    2.4340   -5.0320   -0.2160 C   0  0  0  0  0  0  0  0  0  0  0  0
    2.2570   -4.3560   -1.4210 C   0  0  0  0  0  0  0  0  0  0  0  0
    2.1420   -4.5110    3.3000 F   0  0  0  0  0  0  0  0  0  0  0  0
    2.5320   -6.3530    2.2580 F   0  0  0  0  0  0  0  0  0  0  0  0
    4.1510   -5.0060    2.7000 F   0  0  0  0  0  0  0  0  0  0  0  0
    0.3020   -0.5700    1.2030 C   0  0  0  0  0  0  0  0  0  0  0  0
    8.6310    0.5010   -0.1910 O   0  0  0  0  0  0  0  0  0  0  0  0
    2.0480   -2.1680   -2.9820 Cl  0  0  0  0  0  0  0  0  0  0  0  0
    6.9190    3.6850   -0.8300 C   0  0  0  0  0  0  0  0  0  0  0  0
    4.8960    2.4980    0.6770 C   0  0  0  0  0  0  0  0  0  0  0  0
    9.8040   -0.2870   -0.5160 C   0  0  0  0  0  0  0  0  0  0  0  0
    5.8190    4.4320   -0.4250 C   0  0  0  0  0  0  0  0  0  0  0  0
    4.8120    3.8400    0.3370 C   0  0  0  0  0  0  0  0  0  0  0  0
   11.0760    0.3180    0.0750 C   0  0  0  0  0  0  0  0  0  0  0  0
  1  2  1  0  0  0  0
  1 13  2  0  0  0  0
  1 14  2  0  0  0  0
  1 23  1  0  0  0  0
  2  3  1  0  0  0  0
  2  6  1  0  0  0  0
  3  7  2  0  0  0  0
  3 15  1  0  0  0  0
  4 10  1  0  0  0  0
  4 20  1  0  0  0  0
  4 21  1  0  0  0  0
  4 22  1  0  0  0  0
  5  9  2  0  0  0  0
  5 11  1  0  0  0  0
  5 26  1  0  0  0  0
  6  8  1  0  0  0  0
  7 10  1  0  0  0  0
  8 12  1  0  0  0  0
  8 16  2  0  0  0  0
  9 12  1  0  0  0  0
  9 27  1  0  0  0  0
 10 18  2  0  0  0  0
 11 17  2  0  0  0  0
 11 24  1  0  0  0  0
 15 19  2  0  0  0  0
 15 25  1  0  0  0  0
 18 19  1  0  0  0  0
 24 28  1  0  0  0  0
 26 29  2  0  0  0  0
 27 30  2  0  0  0  0
 28 31  1  0  0  0  0
 29 30  1  0  0  0  0
M  END
>  <NScode>
NS-013609712-0000

>  <a_acc>
4

>  <a_don>
1

>  <chiral>
0

>  <opr_nrot>
6

>  <Weight>
478.875

>  <druglike>
1

>  <lip_druglike>
1

>  <lip_violation>
0

>  <logS>
-5.7946501

$$$$
