NS-017863683-0000
  MOE2022           3D

 24 26  0  0  0  0  0  0  0  0999 V2000
    2.1220   -1.9670    0.4410 N   0  3  0  0  0  0  0  0  0  0  0  0
    1.5280   -2.1440   -0.7970 C   0  0  0  0  0  0  0  0  0  0  0  0
    0.7620   -1.0240   -1.2780 C   0  0  0  0  0  0  0  0  0  0  0  0
   -0.6090   -1.1030   -1.2900 N   0  0  0  0  0  0  0  0  0  0  0  0
    0.4260    1.9620    0.1870 N   0  3  0  0  0  0  0  0  0  0  0  0
    1.9040   -0.9490    1.1280 O   0  5  0  0  0  0  0  0  0  0  0  0
   -1.9160    1.0080    0.6020 C   0  0  0  0  0  0  0  0  0  0  0  0
   -0.4460    1.0240    0.9830 C   0  0  0  0  0  0  0  0  0  0  0  0
   -2.3890    0.5220   -0.6320 C   0  0  0  0  0  0  0  0  0  0  0  0
    1.2590    0.0380   -1.6610 O   0  0  0  0  0  0  0  0  0  0  0  0
   -1.4780   -0.0100   -1.7280 C   0  0  0  0  0  0  0  0  0  0  0  0
    2.9350   -2.9340    0.9820 C   0  0  0  0  0  0  0  0  0  0  0  0
    1.7150   -3.3650   -1.4620 C   0  0  0  0  0  0  0  0  0  0  0  0
    1.7860    2.1580    0.8000 C   0  0  0  0  0  0  0  0  0  0  0  0
   -0.2330    3.2580   -0.2020 C   0  0  0  0  0  0  0  0  0  0  0  0
   -2.8250    1.5040    1.5380 C   0  0  0  0  0  0  0  0  0  0  0  0
   -3.7610    0.5440   -0.8900 C   0  0  0  0  0  0  0  0  0  0  0  0
    3.1280   -4.1260    0.3150 C   0  0  0  0  0  0  0  0  0  0  0  0
    2.5090   -4.3580   -0.9180 C   0  0  0  0  0  0  0  0  0  0  0  0
    0.6730    4.1640   -1.0450 C   0  0  0  0  0  0  0  0  0  0  0  0
    2.6960    3.0610   -0.0400 C   0  0  0  0  0  0  0  0  0  0  0  0
   -4.1860    1.5210    1.2650 C   0  0  0  0  0  0  0  0  0  0  0  0
   -4.6550    1.0400    0.0510 C   0  0  0  0  0  0  0  0  0  0  0  0
    2.0380    4.4090   -0.3820 C   0  0  0  0  0  0  0  0  0  0  0  0
  1  2  2  0  0  0  0
  1  6  1  0  0  0  0
  1 12  1  0  0  0  0
  2  3  1  0  0  0  0
  2 13  1  0  0  0  0
  3  4  1  0  0  0  0
  3 10  2  0  0  0  0
  4 11  1  0  0  0  0
  5  8  1  0  0  0  0
  5 14  1  0  0  0  0
  5 15  1  0  0  0  0
  7  8  1  0  0  0  0
  7  9  2  0  0  0  0
  7 16  1  0  0  0  0
  9 11  1  0  0  0  0
  9 17  1  0  0  0  0
 12 18  2  0  0  0  0
 13 19  2  0  0  0  0
 14 21  1  0  0  0  0
 15 20  1  0  0  0  0
 16 22  2  0  0  0  0
 17 23  2  0  0  0  0
 18 19  1  0  0  0  0
 20 24  1  0  0  0  0
 21 24  1  0  0  0  0
 22 23  1  0  0  0  0
M  CHG  1   1   1
M  CHG  1   5   1
M  CHG  1   6  -1
M  END
>  <NScode>
NS-017863683-0000

>  <a_acc>
3

>  <a_don>
1

>  <chiral>
0

>  <opr_nrot>
7

>  <Weight>
325.41199

>  <druglike>
1

>  <lip_druglike>
1

>  <lip_violation>
0

>  <logS>
-3.15258

$$$$
