NS-012530053-0000
  MOE2022           3D

 19 21  0  0  0  0  0  0  0  0999 V2000
    1.6790   -1.5070   -0.2350 C   0  0  0  0  0  0  0  0  0  0  0  0
    2.0330   -0.3010    0.0600 N   0  0  0  0  0  0  0  0  0  0  0  0
    0.9430    0.4370   -0.2340 C   0  0  0  0  0  0  0  0  0  0  0  0
    2.4510   -2.7600   -0.1370 C   0  0  0  0  0  0  0  0  0  0  0  0
   -0.0260   -0.2900   -0.6860 N   0  0  0  0  0  0  0  0  0  0  0  0
    0.4340   -1.5130   -0.6920 O   0  0  0  0  0  0  0  0  0  0  0  0
    1.8380   -4.0110   -0.1390 N   0  0  0  0  0  0  0  0  0  0  0  0
    0.8750    1.8920   -0.0580 C   0  0  0  0  0  0  0  0  0  0  0  0
    3.6810   -2.7730   -0.0470 O   0  0  0  0  0  0  0  0  0  0  0  0
    1.9850    2.6080    0.4310 C   0  0  0  0  0  0  0  0  0  0  0  0
   -0.2980    2.6060   -0.3740 C   0  0  0  0  0  0  0  0  0  0  0  0
    0.7540    4.6530    0.2800 C   0  0  0  0  0  0  0  0  0  0  0  0
    1.9280    3.9880    0.6010 C   0  0  0  0  0  0  0  0  0  0  0  0
   -0.3620    3.9860   -0.2060 C   0  0  0  0  0  0  0  0  0  0  0  0
    0.6950    5.9950    0.4440 F   0  0  0  0  0  0  0  0  0  0  0  0
    0.4190   -4.3090   -0.0120 C   0  0  0  0  0  0  0  0  0  0  0  0
    2.5890   -5.2540   -0.0550 C   0  0  0  0  0  0  0  0  0  0  0  0
    1.5820   -6.3960   -0.1810 C   0  0  0  0  0  0  0  0  0  0  0  0
    0.3020   -5.7770    0.3960 C   0  0  0  0  0  0  0  0  0  0  0  0
  1  2  2  0  0  0  0
  1  4  1  0  0  0  0
  1  6  1  0  0  0  0
  2  3  1  0  0  0  0
  3  5  2  0  0  0  0
  3  8  1  0  0  0  0
  4  7  1  0  0  0  0
  4  9  2  0  0  0  0
  5  6  1  0  0  0  0
  7 16  1  0  0  0  0
  7 17  1  0  0  0  0
  8 10  2  0  0  0  0
  8 11  1  0  0  0  0
 10 13  1  0  0  0  0
 11 14  2  0  0  0  0
 12 13  2  0  0  0  0
 12 14  1  0  0  0  0
 12 15  1  0  0  0  0
 16 19  1  0  0  0  0
 17 18  1  0  0  0  0
 18 19  1  0  0  0  0
M  END
>  <NScode>
NS-012530053-0000

>  <a_acc>
3

>  <a_don>
0

>  <chiral>
0

>  <opr_nrot>
3

>  <Weight>
261.25598

>  <druglike>
1

>  <lip_druglike>
1

>  <lip_violation>
0

>  <logS>
-4.0712299

$$$$
