NS-019992536-0000
  MOE2022           3D

 16 18  0  0  1  0  0  0  0  0999 V2000
    0.5420   -0.0940   -0.1180 N   0  0  0  0  0  0  0  0  0  0  0  0
   -0.5640    0.7000   -0.0690 C   0  0  0  0  0  0  0  0  0  0  0  0
    0.0790   -1.2360   -0.4390 C   0  0  0  0  0  0  0  0  0  0  0  0
   -1.6330    0.0340   -0.3630 N   0  0  0  0  0  0  0  0  0  0  0  0
   -1.2290   -1.1920   -0.5950 O   0  0  0  0  0  0  0  0  0  0  0  0
   -0.5620    2.1330    0.2660 C   0  0  0  0  0  0  0  0  0  0  0  0
    0.5990    2.7750    0.5420 N   0  0  0  0  0  0  0  0  0  0  0  0
    0.8110   -2.5550   -0.6620 C   0  0  3  0  0  0  0  0  0  0  0  0
    0.3550   -3.6010    0.2270 O   0  0  0  0  0  0  0  0  0  0  0  0
   -1.8370    4.1510    0.5910 N   0  0  0  0  0  0  0  0  0  0  0  0
   -1.7740    2.8520    0.2980 C   0  0  0  0  0  0  0  0  0  0  0  0
    0.5310    4.0700    0.8350 C   0  0  0  0  0  0  0  0  0  0  0  0
   -0.6820    4.7590    0.8590 C   0  0  0  0  0  0  0  0  0  0  0  0
    1.4630   -4.3190    0.8050 C   0  0  0  0  0  0  0  0  0  0  0  0
    2.3280   -2.5220   -0.4470 C   0  0  0  0  0  0  0  0  0  0  0  0
    2.7190   -3.9260    0.0220 C   0  0  0  0  0  0  0  0  0  0  0  0
  1  2  1  0  0  0  0
  1  3  2  0  0  0  0
  2  4  2  0  0  0  0
  2  6  1  0  0  0  0
  3  5  1  0  0  0  0
  3  8  1  0  0  0  0
  4  5  1  0  0  0  0
  6  7  1  0  0  0  0
  6 11  2  0  0  0  0
  7 12  2  0  0  0  0
  8  9  1  0  0  0  0
  8 15  1  0  0  0  0
  9 14  1  0  0  0  0
 10 11  1  0  0  0  0
 10 13  2  0  0  0  0
 12 13  1  0  0  0  0
 14 16  1  0  0  0  0
 15 16  1  0  0  0  0
M  END
>  <NScode>
NS-019992536-0000

>  <a_acc>
5

>  <a_don>
0

>  <chiral>
1

>  <opr_nrot>
3

>  <Weight>
218.216

>  <druglike>
1

>  <lip_druglike>
1

>  <lip_violation>
0

>  <logS>
-1.30483

$$$$
