NS-012549022-0000
  MOE2022           3D

 26 29  0  0  1  0  0  0  0  0999 V2000
    4.8070   -2.7910    0.9660 C   0  0  0  0  0  0  0  0  0  0  0  0
    4.1820   -1.9860    0.0740 N   0  0  0  0  0  0  0  0  0  0  0  0
    4.9190   -4.0180    0.4140 C   0  0  0  0  0  0  0  0  0  0  0  0
    5.2650   -2.4500    2.2660 N   0  0  0  0  0  0  0  0  0  0  0  0
    4.3640   -4.0040   -0.8380 N   0  0  0  0  0  0  0  0  0  0  0  0
    3.9440   -2.7790   -1.0170 C   0  0  0  0  0  0  0  0  0  0  0  0
    3.7930   -0.6210    0.2610 C   0  0  0  0  0  0  0  0  0  0  0  0
    5.5300   -5.1650    1.2100 C   0  0  3  0  0  0  0  0  0  0  0  0
    5.9900   -3.3470    2.9820 C   0  0  0  0  0  0  0  0  0  0  0  0
    4.2660    0.3660   -0.6120 C   0  0  0  0  0  0  0  0  0  0  0  0
    6.4830   -4.6040    2.2910 C   0  0  0  0  0  0  0  0  0  0  0  0
    3.8930    1.6970   -0.4220 C   0  0  0  0  0  0  0  0  0  0  0  0
    2.9430   -0.3000    1.3210 C   0  0  0  0  0  0  0  0  0  0  0  0
    6.2350   -6.2250    0.3730 C   0  0  0  0  0  0  0  0  0  0  0  0
    3.0460    2.0130    0.6450 C   0  0  0  0  0  0  0  0  0  0  0  0
    6.2280   -3.0790    4.1370 O   0  0  0  0  0  0  0  0  0  0  0  0
    2.5710    1.0280    1.5120 C   0  0  0  0  0  0  0  0  0  0  0  0
    5.1020   -0.0100   -1.6470 O   0  0  0  0  0  0  0  0  0  0  0  0
    2.6390    3.3060    0.8920 O   0  0  0  0  0  0  0  0  0  0  0  0
    6.1320   -7.5720    0.7270 C   0  0  0  0  0  0  0  0  0  0  0  0
    7.0180   -5.8710   -0.7270 C   0  0  0  0  0  0  0  0  0  0  0  0
    5.7040    0.8900   -2.6060 C   0  0  0  0  0  0  0  0  0  0  0  0
    3.0140    4.4610    0.1090 C   0  0  0  0  0  0  0  0  0  0  0  0
    6.7980   -8.5480   -0.0090 C   0  0  0  0  0  0  0  0  0  0  0  0
    7.6840   -6.8460   -1.4630 C   0  0  0  0  0  0  0  0  0  0  0  0
    7.5750   -8.1860   -1.1040 C   0  0  0  0  0  0  0  0  0  0  0  0
  1  2  1  0  0  0  0
  1  3  2  0  0  0  0
  1  4  1  0  0  0  0
  2  6  1  0  0  0  0
  2  7  1  0  0  0  0
  3  5  1  0  0  0  0
  3  8  1  0  0  0  0
  4  9  1  0  0  0  0
  5  6  2  0  0  0  0
  7 10  2  0  0  0  0
  7 13  1  0  0  0  0
  8 11  1  0  0  0  0
  8 14  1  0  0  0  0
  9 11  1  0  0  0  0
  9 16  2  0  0  0  0
 10 12  1  0  0  0  0
 10 18  1  0  0  0  0
 12 15  2  0  0  0  0
 13 17  2  0  0  0  0
 14 20  2  0  0  0  0
 14 21  1  0  0  0  0
 15 17  1  0  0  0  0
 15 19  1  0  0  0  0
 18 22  1  0  0  0  0
 19 23  1  0  0  0  0
 20 24  1  0  0  0  0
 21 25  2  0  0  0  0
 24 26  2  0  0  0  0
 25 26  1  0  0  0  0
M  END
>  <NScode>
NS-012549022-0000

>  <a_acc>
4

>  <a_don>
1

>  <chiral>
1

>  <opr_nrot>
4

>  <Weight>
349.38998

>  <druglike>
1

>  <lip_druglike>
1

>  <lip_violation>
0

>  <logS>
-4.1002898

$$$$
