NS-051109655-0000
  MOE2022           3D

 25 28  0  0  0  0  0  0  0  0999 V2000
   -7.2470   -0.9690   -2.3710 F   0  0  0  0  0  0  0  0  0  0  0  0
   -6.1830   -1.2200   -1.5940 C   0  0  0  0  0  0  0  0  0  0  0  0
   -6.6430   -1.3660   -0.3380 F   0  0  0  0  0  0  0  0  0  0  0  0
   -5.2410   -0.1320   -1.6740 O   0  0  0  0  0  0  0  0  0  0  0  0
   -3.9720   -0.1370   -1.1300 C   0  0  0  0  0  0  0  0  0  0  0  0
   -3.1510    0.9390   -1.4520 C   0  0  0  0  0  0  0  0  0  0  0  0
   -1.8590    0.9960   -0.9460 C   0  0  0  0  0  0  0  0  0  0  0  0
   -1.3910   -0.0250   -0.1080 C   0  0  0  0  0  0  0  0  0  0  0  0
   -0.0490    0.0310    0.4060 N   0  0  0  0  0  0  0  0  0  0  0  0
    0.5280   -1.1880    0.9850 C   0  0  0  0  0  0  0  0  0  0  0  0
   -0.4810   -1.9050    1.8810 C   0  0  0  0  0  0  0  0  0  0  0  0
   -1.7420   -2.2600    1.0940 C   0  0  0  0  0  0  0  0  0  0  0  0
   -2.2200   -1.1170    0.2160 C   0  0  0  0  0  0  0  0  0  0  0  0
   -3.5140   -1.1630   -0.3000 C   0  0  0  0  0  0  0  0  0  0  0  0
    0.6350    1.2280    0.6050 C   0  0  0  0  0  0  0  0  0  0  0  0
   -0.0040    2.2110    0.9650 O   0  0  0  0  0  0  0  0  0  0  0  0
    2.0720    1.2560    0.4070 C   0  0  0  0  0  0  0  0  0  0  0  0
    3.0460    2.0150    1.0100 C   0  0  0  0  0  0  0  0  0  0  0  0
    4.2760    1.6610    0.4600 C   0  0  0  0  0  0  0  0  0  0  0  0
    5.6680    2.1840    0.7600 C   0  0  0  0  0  0  0  0  0  0  0  0
    6.7010    1.3550    0.1050 O   0  0  0  0  0  0  0  0  0  0  0  0
    6.4070    0.8950   -1.2590 C   0  0  0  0  0  0  0  0  0  0  0  0
    5.1250    0.0460   -1.3150 C   0  0  0  0  0  0  0  0  0  0  0  0
    4.0520    0.7060   -0.4850 C   0  0  0  0  0  0  0  0  0  0  0  0
    2.7140    0.4620   -0.5200 N   0  0  0  0  0  0  0  0  0  0  0  0
  1  2  1  0  0  0  0
  2  3  1  0  0  0  0
  2  4  1  0  0  0  0
  4  5  1  0  0  0  0
  5  6  1  0  0  0  0
  5 14  2  0  0  0  0
  6  7  2  0  0  0  0
  7  8  1  0  0  0  0
  8  9  1  0  0  0  0
  8 13  2  0  0  0  0
  9 10  1  0  0  0  0
  9 15  1  0  0  0  0
 10 11  1  0  0  0  0
 11 12  1  0  0  0  0
 12 13  1  0  0  0  0
 13 14  1  0  0  0  0
 15 16  2  0  0  0  0
 15 17  1  0  0  0  0
 17 18  2  0  0  0  0
 17 25  1  0  0  0  0
 18 19  1  0  0  0  0
 19 20  1  0  0  0  0
 19 24  2  0  0  0  0
 20 21  1  0  0  0  0
 21 22  1  0  0  0  0
 22 23  1  0  0  0  0
 23 24  1  0  0  0  0
 24 25  1  0  0  0  0
M  END
>  <NScode>
NS-051109655-0000

>  <a_acc>
3

>  <a_don>
1

>  <chiral>
0

>  <opr_nrot>
5

>  <Weight>
348.349

>  <druglike>
1

>  <lip_druglike>
1

>  <lip_violation>
0

>  <logS>
-2.8178999

$$$$
