NS-012378224-0000
  MOE2022           3D

 30 33  0  0  0  0  0  0  0  0999 V2000
    6.4140    3.7850   -0.1610 C   0  0  0  0  0  0  0  0  0  0  0  0
    6.4990    2.4310   -0.2360 C   0  0  0  0  0  0  0  0  0  0  0  0
    4.5510    2.7890    0.2750 C   0  0  0  0  0  0  0  0  0  0  0  0
    5.1130    4.0110    0.1800 N   0  0  0  0  0  0  0  0  0  0  0  0
    5.3580    1.7700    0.0280 N   0  0  0  0  0  0  0  0  0  0  0  0
    7.7320    1.8690   -0.5660 N   0  0  0  0  0  0  0  0  0  0  0  0
    8.6800    4.0880   -0.7900 N   0  0  0  0  0  0  0  0  0  0  0  0
    8.8210    2.6930   -0.8490 C   0  0  0  0  0  0  0  0  0  0  0  0
    7.4800    4.6720   -0.4020 C   0  0  0  0  0  0  0  0  0  0  0  0
    3.2320    2.9570    0.6100 N   0  0  0  0  0  0  0  0  0  0  0  0
    4.1490    4.9840    0.4450 C   0  0  0  0  0  0  0  0  0  0  0  0
    2.9950    4.3250    0.7050 C   0  0  0  0  0  0  0  0  0  0  0  0
    2.3070    1.8370    0.7500 C   0  0  0  0  0  0  0  0  0  0  0  0
    9.9080    2.2030   -1.1450 O   0  0  0  0  0  0  0  0  0  0  0  0
    7.4310    5.8970   -0.2890 O   0  0  0  0  0  0  0  0  0  0  0  0
    9.8510    4.9340   -1.0990 C   0  0  0  0  0  0  0  0  0  0  0  0
    7.8580    0.4100   -0.6730 C   0  0  0  0  0  0  0  0  0  0  0  0
    4.4630    6.4650    0.4090 C   0  0  0  0  0  0  0  0  0  0  0  0
    1.7760    1.3330   -0.5960 C   0  0  0  0  0  0  0  0  0  0  0  0
    1.6270    4.8660    1.0490 C   0  0  0  0  0  0  0  0  0  0  0  0
    0.8780    0.1210   -0.4410 C   0  0  0  0  0  0  0  0  0  0  0  0
   11.8910    5.9530   -0.2680 O   0  0  0  0  0  0  0  0  0  0  0  0
   10.7880    5.1370    0.0960 C   0  0  0  0  0  0  0  0  0  0  0  0
   12.8190    6.1290    0.7860 C   0  0  0  0  0  0  0  0  0  0  0  0
   -0.5220    0.2670   -0.4180 C   0  0  0  0  0  0  0  0  0  0  0  0
    1.4510   -1.1580   -0.3050 C   0  0  0  0  0  0  0  0  0  0  0  0
   13.9470    7.0050    0.2530 C   0  0  0  0  0  0  0  0  0  0  0  0
    0.6260   -2.2860   -0.1480 C   0  0  0  0  0  0  0  0  0  0  0  0
   -1.3450   -0.8620   -0.2630 C   0  0  0  0  0  0  0  0  0  0  0  0
   -0.7720   -2.1380   -0.1270 C   0  0  0  0  0  0  0  0  0  0  0  0
  1  2  2  0  0  0  0
  1  4  1  0  0  0  0
  1  9  1  0  0  0  0
  2  5  1  0  0  0  0
  2  6  1  0  0  0  0
  3  4  1  0  0  0  0
  3  5  2  0  0  0  0
  3 10  1  0  0  0  0
  4 11  1  0  0  0  0
  6  8  1  0  0  0  0
  6 17  1  0  0  0  0
  7  8  1  0  0  0  0
  7  9  1  0  0  0  0
  7 16  1  0  0  0  0
  8 14  2  0  0  0  0
  9 15  2  0  0  0  0
 10 12  1  0  0  0  0
 10 13  1  0  0  0  0
 11 12  2  0  0  0  0
 11 18  1  0  0  0  0
 12 20  1  0  0  0  0
 13 19  1  0  0  0  0
 16 23  1  0  0  0  0
 19 21  1  0  0  0  0
 21 25  1  0  0  0  0
 21 26  2  0  0  0  0
 22 23  1  0  0  0  0
 22 24  1  0  0  0  0
 24 27  1  0  0  0  0
 25 29  2  0  0  0  0
 26 28  1  0  0  0  0
 28 30  2  0  0  0  0
 29 30  1  0  0  0  0
M  END
>  <NScode>
NS-012378224-0000

>  <a_acc>
4

>  <a_don>
0

>  <chiral>
0

>  <opr_nrot>
7

>  <Weight>
409.48999

>  <druglike>
1

>  <lip_druglike>
1

>  <lip_violation>
0

>  <logS>
-4.3171802

$$$$
