NS-019686911-0000
  MOE2022           3D

 24 27  0  0  0  0  0  0  0  0999 V2000
   -1.9330    4.5250   -0.2210 C   0  0  0  0  0  0  0  0  0  0  0  0
   -0.5760    5.5630   -0.2030 S   0  0  0  0  0  0  0  0  0  0  0  0
   -3.0540    5.1100   -0.5420 N   0  0  0  0  0  0  0  0  0  0  0  0
   -0.5260   -2.9310   -0.8420 N   0  0  0  0  0  0  0  0  0  0  0  0
    0.5110   -3.7000   -1.1770 C   0  0  0  0  0  0  0  0  0  0  0  0
   -2.8740    6.4520   -0.7970 N   0  0  0  0  0  0  0  0  0  0  0  0
   -0.4240   -2.0940    0.1720 C   0  0  0  0  0  0  0  0  0  0  0  0
   -1.8150    3.1530    0.1060 N   0  0  0  0  0  0  0  0  0  0  0  0
    1.7530   -3.6850   -0.4710 C   0  0  0  0  0  0  0  0  0  0  0  0
    0.7200   -2.0200    0.8770 N   0  0  0  0  0  0  0  0  0  0  0  0
   -1.6410    6.8210   -0.6560 C   0  0  0  0  0  0  0  0  0  0  0  0
    1.8330   -2.7910    0.6010 C   0  0  0  0  0  0  0  0  0  0  0  0
   -1.5740    0.1810   -0.0330 N   0  0  0  0  0  0  0  0  0  0  0  0
   -1.5570   -1.1670    0.6080 C   0  0  0  0  0  0  0  0  0  0  0  0
   -2.9460    2.2980   -0.3190 C   0  0  0  0  0  0  0  0  0  0  0  0
   -0.5170    2.4880   -0.1310 C   0  0  0  0  0  0  0  0  0  0  0  0
    0.2850   -4.4690   -2.2230 N   0  3  0  0  0  0  0  0  0  0  0  0
   -0.4620    1.0530    0.4420 C   0  0  0  0  0  0  0  0  0  0  0  0
   -2.8670    0.8660    0.2520 C   0  0  0  0  0  0  0  0  0  0  0  0
    2.8880   -4.4850   -0.7600 C   0  0  0  0  0  0  0  0  0  0  0  0
   -1.1350    8.2250   -0.8620 C   0  0  0  0  0  0  0  0  0  0  0  0
    2.9890   -2.6620    1.3840 C   0  0  0  0  0  0  0  0  0  0  0  0
    4.0310   -4.3620    0.0080 C   0  0  0  0  0  0  0  0  0  0  0  0
    4.0830   -3.4490    1.0810 C   0  0  0  0  0  0  0  0  0  0  0  0
  1  2  1  0  0  0  0
  1  3  2  0  0  0  0
  1  8  1  0  0  0  0
  2 11  1  0  0  0  0
  3  6  1  0  0  0  0
  4  5  1  0  0  0  0
  4  7  2  0  0  0  0
  5  9  1  0  0  0  0
  5 17  2  0  0  0  0
  6 11  2  0  0  0  0
  7 10  1  0  0  0  0
  7 14  1  0  0  0  0
  8 15  1  0  0  0  0
  8 16  1  0  0  0  0
  9 12  2  0  0  0  0
  9 20  1  0  0  0  0
 10 12  1  0  0  0  0
 11 21  1  0  0  0  0
 12 22  1  0  0  0  0
 13 14  1  0  0  0  0
 13 18  1  0  0  0  0
 13 19  1  0  0  0  0
 15 19  1  0  0  0  0
 16 18  1  0  0  0  0
 20 23  2  0  0  0  0
 22 24  2  0  0  0  0
 23 24  1  0  0  0  0
M  CHG  1  17   1
M  END
>  <NScode>
NS-019686911-0000

>  <a_acc>
5

>  <a_don>
1

>  <chiral>
0

>  <opr_nrot>
5

>  <Weight>
341.44299

>  <druglike>
1

>  <lip_druglike>
1

>  <lip_violation>
0

>  <logS>
-3.6709199

$$$$
