NS-012600469-0000
  MOE2022           3D

 27 29  0  0  0  0  0  0  0  0999 V2000
    1.3010   -2.1710    0.7400 C   0  0  0  0  0  0  0  0  0  0  0  0
    0.9880   -1.9390   -0.5760 C   0  0  0  0  0  0  0  0  0  0  0  0
    0.5210   -1.0510    1.7940 S   0  0  0  0  0  0  0  0  0  0  0  0
    0.1080   -0.8460   -0.7390 C   0  0  0  0  0  0  0  0  0  0  0  0
   -0.2360   -0.2580    0.4470 C   0  0  0  0  0  0  0  0  0  0  0  0
    2.1520   -3.1960    1.1450 N   0  0  0  0  0  0  0  0  0  0  0  0
    1.5760   -2.7980   -1.5570 C   0  0  0  0  0  0  0  0  0  0  0  0
    2.4030   -3.7770   -1.0950 N   0  0  0  0  0  0  0  0  0  0  0  0
    2.6660   -3.9600    0.2500 C   0  0  0  0  0  0  0  0  0  0  0  0
    7.1620   -2.8370    0.0750 C   0  0  0  0  0  0  0  0  0  0  0  0
   12.6410   -3.5600    0.4290 N   0  0  0  0  0  0  0  0  0  0  0  0
    7.3860   -1.6680   -0.2160 O   0  0  0  0  0  0  0  0  0  0  0  0
   -1.1550    0.9260    0.6670 C   0  0  0  0  0  0  0  0  0  0  0  0
    8.1360   -3.7500    0.0630 N   0  0  0  0  0  0  0  0  0  0  0  0
    5.2580   -4.9190   -0.2060 S   0  0  0  0  0  0  0  0  0  0  0  0
    1.4260   -2.7620   -2.7750 O   0  0  0  0  0  0  0  0  0  0  0  0
   11.7320   -2.5850    0.4000 C   0  0  0  0  0  0  0  0  0  0  0  0
   10.3220   -2.9310    0.8110 C   0  0  0  0  0  0  0  0  0  0  0  0
    9.5050   -3.4690   -0.3630 C   0  0  0  0  0  0  0  0  0  0  0  0
    3.6140   -5.0890    0.5880 C   0  0  0  0  0  0  0  0  0  0  0  0
    5.7840   -3.3010    0.5040 C   0  0  0  0  0  0  0  0  0  0  0  0
   13.8970   -3.3070    0.0640 C   0  0  0  0  0  0  0  0  0  0  0  0
   -2.5980    0.5670    0.3030 C   0  0  0  0  0  0  0  0  0  0  0  0
   -0.6850    2.1440   -0.1350 C   0  0  0  0  0  0  0  0  0  0  0  0
   12.0640   -1.2970   -0.0170 C   0  0  0  0  0  0  0  0  0  0  0  0
   14.2960   -2.0410   -0.3570 C   0  0  0  0  0  0  0  0  0  0  0  0
   13.3660   -1.0130   -0.4020 C   0  0  0  0  0  0  0  0  0  0  0  0
  1  2  2  0  0  0  0
  1  3  1  0  0  0  0
  1  6  1  0  0  0  0
  2  4  1  0  0  0  0
  2  7  1  0  0  0  0
  3  5  1  0  0  0  0
  4  5  2  0  0  0  0
  5 13  1  0  0  0  0
  6  9  2  0  0  0  0
  7  8  1  0  0  0  0
  7 16  2  0  0  0  0
  8  9  1  0  0  0  0
  9 20  1  0  0  0  0
 10 12  2  0  0  0  0
 10 14  1  0  0  0  0
 10 21  1  0  0  0  0
 11 17  2  0  0  0  0
 11 22  1  0  0  0  0
 13 23  1  0  0  0  0
 13 24  1  0  0  0  0
 14 19  1  0  0  0  0
 15 20  1  0  0  0  0
 15 21  1  0  0  0  0
 17 18  1  0  0  0  0
 17 25  1  0  0  0  0
 18 19  1  0  0  0  0
 22 26  2  0  0  0  0
 25 27  2  0  0  0  0
 26 27  1  0  0  0  0
M  END
>  <NScode>
NS-012600469-0000

>  <a_acc>
4

>  <a_don>
2

>  <chiral>
0

>  <opr_nrot>
8

>  <Weight>
402.543

>  <druglike>
1

>  <lip_druglike>
1

>  <lip_violation>
0

>  <logS>
-4.91289

$$$$
