NS-023568526-0000
  MOE2022           3D

 21 23  0  0  1  0  0  0  0  0999 V2000
    5.4350   -1.4410   -0.2600 C   0  0  0  0  0  0  0  0  0  0  0  0
    4.3510   -0.4830    0.1690 C   0  0  0  0  0  0  0  0  0  0  0  0
    3.0800   -0.5820   -0.0520 N   0  0  0  0  0  0  0  0  0  0  0  0
    2.4890    0.5330    0.5310 C   0  0  0  0  0  0  0  0  0  0  0  0
    3.4800    1.2800    1.1010 C   0  0  0  0  0  0  0  0  0  0  0  0
    4.6280    0.6400    0.8700 N   0  0  0  0  0  0  0  0  0  0  0  0
    1.0580    0.9220    0.5760 C   0  0  0  0  0  0  0  0  0  0  0  0
    0.7150    1.9640    1.1450 O   0  0  0  0  0  0  0  0  0  0  0  0
    0.0090    0.1980   -0.0060 N   0  0  0  0  0  0  0  0  0  0  0  0
    0.2220   -1.1050   -0.6470 C   0  0  0  0  0  0  0  0  0  0  0  0
    0.3040   -2.2270    0.3980 C   0  0  0  0  0  0  0  0  0  0  0  0
   -0.7330   -2.1000    1.4070 O   0  0  0  0  0  0  0  0  0  0  0  0
   -2.0120   -1.8740    0.9800 C   0  0  0  0  0  0  0  0  0  0  0  0
   -2.9020   -2.9330    1.1270 C   0  0  0  0  0  0  0  0  0  0  0  0
   -4.2060   -2.8020    0.6720 C   0  0  0  0  0  0  0  0  0  0  0  0
   -4.6110   -1.6120    0.0800 C   0  0  0  0  0  0  0  0  0  0  0  0
   -3.7190   -0.5480   -0.0500 C   0  0  0  0  0  0  0  0  0  0  0  0
   -2.3940   -0.6510    0.4020 C   0  0  0  0  0  0  0  0  0  0  0  0
   -1.4130    0.5520    0.3240 C   0  0  3  0  0  0  0  0  0  0  0  0
   -1.9200    1.6930   -0.6070 C   0  0  0  0  0  0  0  0  0  0  0  0
   -1.0770    2.8370   -0.6620 O   0  0  0  0  0  0  0  0  0  0  0  0
  1  2  1  0  0  0  0
  2  3  2  0  0  0  0
  2  6  1  0  0  0  0
  3  4  1  0  0  0  0
  4  5  2  0  0  0  0
  4  7  1  0  0  0  0
  5  6  1  0  0  0  0
  7  8  2  0  0  0  0
  7  9  1  0  0  0  0
  9 10  1  0  0  0  0
  9 19  1  0  0  0  0
 10 11  1  0  0  0  0
 11 12  1  0  0  0  0
 12 13  1  0  0  0  0
 13 14  1  0  0  0  0
 13 18  2  0  0  0  0
 14 15  2  0  0  0  0
 15 16  1  0  0  0  0
 16 17  2  0  0  0  0
 17 18  1  0  0  0  0
 18 19  1  0  0  0  0
 19 20  1  0  0  0  0
 20 21  1  0  0  0  0
M  END
>  <NScode>
NS-023568526-0000

>  <a_acc>
5

>  <a_don>
3

>  <chiral>
1

>  <opr_nrot>
4

>  <Weight>
287.319

>  <druglike>
1

>  <lip_druglike>
1

>  <lip_violation>
0

>  <logS>
-1.9390301

$$$$
