NS-014443113-0000
  MOE2022           3D

 32 35  0  0  0  0  0  0  0  0999 V2000
    3.1720    0.7480    0.1940 C   0  0  0  0  0  0  0  0  0  0  0  0
    3.3590    1.9340    1.0230 C   0  0  0  0  0  0  0  0  0  0  0  0
   -2.4980   -8.6350   -0.3790 N   0  3  0  0  0  0  0  0  0  0  0  0
    2.0440   -8.1160    1.4580 N   0  3  0  0  0  0  0  0  0  0  0  0
    4.2430    0.2400   -0.4860 C   0  0  0  0  0  0  0  0  0  0  0  0
    4.5940    2.4970    1.0950 O   0  0  0  0  0  0  0  0  0  0  0  0
    0.8530   -7.5450    0.8300 C   0  0  0  0  0  0  0  0  0  0  0  0
   -1.3480   -7.7960   -0.0590 C   0  0  0  0  0  0  0  0  0  0  0  0
   -0.3710   -4.1740   -0.3930 C   0  0  0  0  0  0  0  0  0  0  0  0
   -0.3040   -5.6030   -0.0620 C   0  0  0  0  0  0  0  0  0  0  0  0
   -0.2300   -8.3800    0.5420 C   0  0  0  0  0  0  0  0  0  0  0  0
    1.8590    0.1120    0.1030 C   0  0  0  0  0  0  0  0  0  0  0  0
    5.5350    0.8560   -0.3780 C   0  0  0  0  0  0  0  0  0  0  0  0
    0.4330   -3.2890    0.3010 N   0  0  0  0  0  0  0  0  0  0  0  0
    5.6830    1.9940    0.4270 C   0  0  0  0  0  0  0  0  0  0  0  0
    0.8340   -6.1760    0.5340 C   0  0  0  0  0  0  0  0  0  0  0  0
   -1.3980   -6.4310   -0.3630 C   0  0  0  0  0  0  0  0  0  0  0  0
   -2.3600   -9.8410   -0.4860 O   0  5  0  0  0  0  0  0  0  0  0  0
    2.9390   -7.3830    1.8420 O   0  5  0  0  0  0  0  0  0  0  0  0
   -3.5990   -8.1350   -0.5300 O   0  0  0  0  0  0  0  0  0  0  0  0
    2.1430   -9.3210    1.6070 O   0  0  0  0  0  0  0  0  0  0  0  0
    2.4840    2.4820    1.6810 O   0  0  0  0  0  0  0  0  0  0  0  0
    1.7380   -1.2760    0.2410 C   0  0  0  0  0  0  0  0  0  0  0  0
    0.4910   -1.8860    0.1280 C   0  0  0  0  0  0  0  0  0  0  0  0
   -1.1110   -3.7460   -1.2630 O   0  0  0  0  0  0  0  0  0  0  0  0
    0.7010    0.8680   -0.1390 C   0  0  0  0  0  0  0  0  0  0  0  0
   -0.5430    0.2520   -0.2450 C   0  0  0  0  0  0  0  0  0  0  0  0
    6.6660    0.3650   -1.0480 C   0  0  0  0  0  0  0  0  0  0  0  0
    6.9100    2.6350    0.5730 C   0  0  0  0  0  0  0  0  0  0  0  0
   -0.6560   -1.1270   -0.1130 C   0  0  0  0  0  0  0  0  0  0  0  0
    8.0190    2.1330   -0.0970 C   0  0  0  0  0  0  0  0  0  0  0  0
    7.8950    0.9990   -0.9070 C   0  0  0  0  0  0  0  0  0  0  0  0
  1  2  1  0  0  0  0
  1  5  2  0  0  0  0
  1 12  1  0  0  0  0
  2  6  1  0  0  0  0
  2 22  2  0  0  0  0
  3  8  1  0  0  0  0
  3 18  1  0  0  0  0
  3 20  2  0  0  0  0
  4  7  1  0  0  0  0
  4 19  1  0  0  0  0
  4 21  2  0  0  0  0
  5 13  1  0  0  0  0
  6 15  1  0  0  0  0
  7 11  2  0  0  0  0
  7 16  1  0  0  0  0
  8 11  1  0  0  0  0
  8 17  2  0  0  0  0
  9 10  1  0  0  0  0
  9 14  1  0  0  0  0
  9 25  2  0  0  0  0
 10 16  2  0  0  0  0
 10 17  1  0  0  0  0
 12 23  2  0  0  0  0
 12 26  1  0  0  0  0
 13 15  2  0  0  0  0
 13 28  1  0  0  0  0
 14 24  1  0  0  0  0
 15 29  1  0  0  0  0
 23 24  1  0  0  0  0
 24 30  2  0  0  0  0
 26 27  2  0  0  0  0
 27 30  1  0  0  0  0
 28 32  2  0  0  0  0
 29 31  2  0  0  0  0
 31 32  1  0  0  0  0
M  CHG  1   3   1
M  CHG  1   4   1
M  CHG  1  18  -1
M  CHG  1  19  -1
M  END
>  <NScode>
NS-014443113-0000

>  <a_acc>
2

>  <a_don>
1

>  <chiral>
0

>  <opr_nrot>
5

>  <Weight>
431.35999

>  <druglike>
1

>  <lip_druglike>
1

>  <lip_violation>
0

>  <logS>
-8.0989399

$$$$
