NS-021535808-0000
  MOE2022           3D

 21 23  0  0  1  0  0  0  0  0999 V2000
    3.0540    0.6320    1.1940 S   0  0  0  0  0  0  0  0  0  0  0  0
    2.1910    0.3910   -0.2040 N   0  0  0  0  0  0  0  0  0  0  0  0
    1.7710    2.9560   -0.4840 C   0  0  0  0  0  0  0  0  0  0  0  0
    4.4070    1.7440    0.7720 C   0  0  0  0  0  0  0  0  0  0  0  0
    1.3630    1.4820   -0.7540 C   0  0  3  0  0  0  0  0  0  0  0  0
    2.3220    3.8080   -1.3360 N   0  0  0  0  0  0  0  0  0  0  0  0
    1.6640    3.6170    0.6550 N   0  3  0  0  0  0  0  0  0  0  0  0
    3.6020   -0.6020    1.6210 O   0  0  0  0  0  0  0  0  0  0  0  0
    2.1960    1.3040    2.1130 O   0  0  0  0  0  0  0  0  0  0  0  0
    2.5580    5.0180   -0.7430 C   0  0  0  0  0  0  0  0  0  0  0  0
    2.1330    4.8960    0.5320 C   0  0  0  0  0  0  0  0  0  0  0  0
    5.1570    1.5680   -0.3870 C   0  0  0  0  0  0  0  0  0  0  0  0
    1.3810   -0.8280   -0.2830 C   0  0  0  0  0  0  0  0  0  0  0  0
   -0.0720    1.1260   -0.3470 C   0  0  0  0  0  0  0  0  0  0  0  0
    4.8910    0.5390   -1.2190 F   0  0  0  0  0  0  0  0  0  0  0  0
    4.7260    2.8350    1.5910 C   0  0  0  0  0  0  0  0  0  0  0  0
   -0.0850   -0.3950   -0.2140 C   0  0  0  0  0  0  0  0  0  0  0  0
    3.1900    6.1680   -1.4890 C   0  0  0  0  0  0  0  0  0  0  0  0
    6.1860    2.4280   -0.7520 C   0  0  0  0  0  0  0  0  0  0  0  0
    5.7550    3.7100    1.2410 C   0  0  0  0  0  0  0  0  0  0  0  0
    6.4830    3.5100    0.0700 C   0  0  0  0  0  0  0  0  0  0  0  0
  1  2  1  0  0  0  0
  1  4  1  0  0  0  0
  1  8  2  0  0  0  0
  1  9  2  0  0  0  0
  2  5  1  0  0  0  0
  2 13  1  0  0  0  0
  3  5  1  0  0  0  0
  3  6  1  0  0  0  0
  3  7  2  0  0  0  0
  4 12  2  0  0  0  0
  4 16  1  0  0  0  0
  5 14  1  0  0  0  0
  6 10  1  0  0  0  0
  7 11  1  0  0  0  0
 10 11  2  0  0  0  0
 10 18  1  0  0  0  0
 12 15  1  0  0  0  0
 12 19  1  0  0  0  0
 13 17  1  0  0  0  0
 14 17  1  0  0  0  0
 16 20  2  0  0  0  0
 19 21  2  0  0  0  0
 20 21  1  0  0  0  0
M  CHG  1   7   1
M  END
>  <NScode>
NS-021535808-0000

>  <a_acc>
4

>  <a_don>
2

>  <chiral>
1

>  <opr_nrot>
3

>  <Weight>
309.36499

>  <druglike>
1

>  <lip_druglike>
1

>  <lip_violation>
0

>  <logS>
-2.66313

$$$$
