NS-014000104-0000
  MOE2022           3D

 35 39  0  0  0  0  0  0  0  0999 V2000
   -0.8400   -1.1780   -1.1280 C   0  0  0  0  0  0  0  0  0  0  0  0
    0.4420   -0.6020   -0.9770 C   0  0  0  0  0  0  0  0  0  0  0  0
   -0.8500   -2.5550   -1.2800 C   0  0  0  0  0  0  0  0  0  0  0  0
   -2.1640   -0.6260   -1.1510 C   0  0  0  0  0  0  0  0  0  0  0  0
    1.5320   -1.3380   -1.0530 N   0  0  0  0  0  0  0  0  0  0  0  0
    0.2730   -3.3040   -1.3460 N   0  0  0  0  0  0  0  0  0  0  0  0
    1.4230   -2.6770   -1.2370 C   0  0  0  0  0  0  0  0  0  0  0  0
   -2.4510   -3.1980   -1.3770 S   0  0  0  0  0  0  0  0  0  0  0  0
   -3.1150   -1.6070   -1.2590 C   0  0  0  0  0  0  0  0  0  0  0  0
    0.6240    0.7380   -0.6800 N   0  0  0  0  0  0  0  0  0  0  0  0
    0.3960    2.5230    1.1590 C   0  0  0  0  0  0  0  0  0  0  0  0
    3.2680   -4.0390   -0.0150 N   0  0  0  0  0  0  0  0  0  0  0  0
    0.3410    1.0540    0.7520 C   0  0  0  0  0  0  0  0  0  0  0  0
   -0.6000    3.3490    0.7010 N   0  0  0  0  0  0  0  0  0  0  0  0
   -2.5270    0.7860   -1.1230 C   0  0  0  0  0  0  0  0  0  0  0  0
    2.7120   -3.5000   -1.3050 C   0  0  0  0  0  0  0  0  0  0  0  0
   -0.7040    4.7330    0.9610 C   0  0  0  0  0  0  0  0  0  0  0  0
    1.2920    2.9700    1.8500 O   0  0  0  0  0  0  0  0  0  0  0  0
   -1.9500    5.2440    1.3190 C   0  0  0  0  0  0  0  0  0  0  0  0
    3.1860   -4.3860    2.8810 O   0  0  0  0  0  0  0  0  0  0  0  0
   -2.0550    6.6080    1.5410 C   0  0  0  0  0  0  0  0  0  0  0  0
   -3.2580    7.1190    1.8840 F   0  0  0  0  0  0  0  0  0  0  0  0
    1.8630    1.3760   -1.1780 C   0  0  0  0  0  0  0  0  0  0  0  0
    3.6080   -2.9470    0.9300 C   0  0  0  0  0  0  0  0  0  0  0  0
    2.3090   -4.9530    0.6530 C   0  0  0  0  0  0  0  0  0  0  0  0
    0.2710    6.9440    1.0680 C   0  0  0  0  0  0  0  0  0  0  0  0
    0.4080    5.5750    0.8360 C   0  0  0  0  0  0  0  0  0  0  0  0
    2.8530   -5.4640    2.0040 C   0  0  0  0  0  0  0  0  0  0  0  0
    4.1280   -3.4990    2.2740 C   0  0  0  0  0  0  0  0  0  0  0  0
   -3.5020    1.2540   -0.2320 C   0  0  0  0  0  0  0  0  0  0  0  0
   -1.9530    1.6990   -2.0170 C   0  0  0  0  0  0  0  0  0  0  0  0
   -0.9700    7.4710    1.4230 C   0  0  0  0  0  0  0  0  0  0  0  0
   -2.3530    3.0300   -2.0330 C   0  0  0  0  0  0  0  0  0  0  0  0
   -3.9050    2.5840   -0.2500 C   0  0  0  0  0  0  0  0  0  0  0  0
   -3.3340    3.4740   -1.1540 C   0  0  0  0  0  0  0  0  0  0  0  0
  1  2  2  0  0  0  0
  1  3  1  0  0  0  0
  1  4  1  0  0  0  0
  2  5  1  0  0  0  0
  2 10  1  0  0  0  0
  3  6  2  0  0  0  0
  3  8  1  0  0  0  0
  4  9  2  0  0  0  0
  4 15  1  0  0  0  0
  5  7  2  0  0  0  0
  6  7  1  0  0  0  0
  7 16  1  0  0  0  0
  8  9  1  0  0  0  0
 10 13  1  0  0  0  0
 10 23  1  0  0  0  0
 11 13  1  0  0  0  0
 11 14  1  0  0  0  0
 11 18  2  0  0  0  0
 12 16  1  0  0  0  0
 12 24  1  0  0  0  0
 12 25  1  0  0  0  0
 14 17  1  0  0  0  0
 15 30  1  0  0  0  0
 15 31  2  0  0  0  0
 17 19  2  0  0  0  0
 17 27  1  0  0  0  0
 19 21  1  0  0  0  0
 20 28  1  0  0  0  0
 20 29  1  0  0  0  0
 21 22  1  0  0  0  0
 21 32  2  0  0  0  0
 24 29  1  0  0  0  0
 25 28  1  0  0  0  0
 26 27  2  0  0  0  0
 26 32  1  0  0  0  0
 30 34  2  0  0  0  0
 31 33  1  0  0  0  0
 33 35  2  0  0  0  0
 34 35  1  0  0  0  0
M  END
>  <NScode>
NS-014000104-0000

>  <a_acc>
5

>  <a_don>
1

>  <chiral>
0

>  <opr_nrot>
9

>  <Weight>
491.591

>  <druglike>
0

>  <lip_druglike>
1

>  <lip_violation>
0

>  <logS>
-7.50388

$$$$
