NS-012888173-0000
  MOE2022           3D

 20 21  0  0  0  0  0  0  0  0999 V2000
    0.5800    0.1590   -0.0300 C   0  0  0  0  0  0  0  0  0  0  0  0
   -0.6580    0.7700    0.0690 N   0  0  0  0  0  0  0  0  0  0  0  0
    0.6500   -1.3030    0.0550 C   0  0  0  0  0  0  0  0  0  0  0  0
   -0.3980    4.4430    0.6150 C   0  0  0  0  0  0  0  0  0  0  0  0
    1.9320   -3.2960    0.6370 C   0  0  0  0  0  0  0  0  0  0  0  0
    1.8250   -1.9110    0.5220 C   0  0  0  0  0  0  0  0  0  0  0  0
   -0.0730    3.0870    0.6520 C   0  0  0  0  0  0  0  0  0  0  0  0
   -0.9260    2.1600    0.0400 C   0  0  0  0  0  0  0  0  0  0  0  0
   -1.5740    4.8400   -0.0310 C   0  0  0  0  0  0  0  0  0  0  0  0
    0.8300   -4.0860    0.2670 C   0  0  0  0  0  0  0  0  0  0  0  0
    1.5690    0.8630   -0.1780 O   0  0  0  0  0  0  0  0  0  0  0  0
   -0.4310   -2.1190   -0.3210 C   0  0  0  0  0  0  0  0  0  0  0  0
   -0.3420   -3.5020   -0.2120 C   0  0  0  0  0  0  0  0  0  0  0  0
   -2.4270    3.9240   -0.6360 C   0  0  0  0  0  0  0  0  0  0  0  0
    0.6490    5.5990    1.3710 Cl  0  0  0  0  0  0  0  0  0  0  0  0
    3.7240   -4.1460    1.3550 I   0  0  0  0  0  0  0  0  0  0  0  0
   -2.1020    2.5690   -0.6000 C   0  0  0  0  0  0  0  0  0  0  0  0
   -1.9080    6.1430   -0.0760 F   0  0  0  0  0  0  0  0  0  0  0  0
    0.9370   -5.4590    0.3860 O   0  0  0  0  0  0  0  0  0  0  0  0
   -0.0780   -6.4300    0.0440 C   0  0  0  0  0  0  0  0  0  0  0  0
  1  2  1  0  0  0  0
  1  3  1  0  0  0  0
  1 11  2  0  0  0  0
  2  8  1  0  0  0  0
  3  6  2  0  0  0  0
  3 12  1  0  0  0  0
  4  7  2  0  0  0  0
  4  9  1  0  0  0  0
  4 15  1  0  0  0  0
  5  6  1  0  0  0  0
  5 10  2  0  0  0  0
  5 16  1  0  0  0  0
  7  8  1  0  0  0  0
  8 17  2  0  0  0  0
  9 14  2  0  0  0  0
  9 18  1  0  0  0  0
 10 13  1  0  0  0  0
 10 19  1  0  0  0  0
 12 13  2  0  0  0  0
 14 17  1  0  0  0  0
 19 20  1  0  0  0  0
M  END
>  <NScode>
NS-012888173-0000

>  <a_acc>
2

>  <a_don>
1

>  <chiral>
0

>  <opr_nrot>
3

>  <Weight>
405.59399

>  <druglike>
1

>  <lip_druglike>
1

>  <lip_violation>
0

>  <logS>
-5.4260402

$$$$
