NS-017868458-0000
  MOE2022           3D

 21 23  0  0  0  0  0  0  0  0999 V2000
   -0.2760    0.0430   -0.2820 N   0  0  0  0  0  0  0  0  0  0  0  0
   -1.5520   -1.6670   -0.5060 O   0  0  0  0  0  0  0  0  0  0  0  0
   -1.5480    0.5170   -0.1770 N   0  0  0  0  0  0  0  0  0  0  0  0
   -0.2800   -1.2970   -0.4840 C   0  0  0  0  0  0  0  0  0  0  0  0
   -2.2850   -0.5270   -0.3120 C   0  0  0  0  0  0  0  0  0  0  0  0
    0.9300    0.8630   -0.1260 C   0  0  0  0  0  0  0  0  0  0  0  0
    1.6400    0.7130    1.2150 C   0  0  0  0  0  0  0  0  0  0  0  0
   -3.7440   -0.5850   -0.2780 C   0  0  0  0  0  0  0  0  0  0  0  0
    0.6940   -2.0300   -0.6360 O   0  0  0  0  0  0  0  0  0  0  0  0
    4.6020    0.2870   -0.2860 C   0  0  0  0  0  0  0  0  0  0  0  0
    5.8630   -0.2830   -0.8780 C   0  0  0  0  0  0  0  0  0  0  0  0
    5.9220    0.4750    0.4130 C   0  0  0  0  0  0  0  0  0  0  0  0
    2.7690    0.0180    1.3530 N   0  0  0  0  0  0  0  0  0  0  0  0
    1.1990    1.2230    2.2340 O   0  0  0  0  0  0  0  0  0  0  0  0
   -4.5000    0.5780   -0.0270 C   0  0  0  0  0  0  0  0  0  0  0  0
   -4.4300   -1.7990   -0.4940 C   0  0  0  0  0  0  0  0  0  0  0  0
    3.5440   -0.6470    0.3140 C   0  0  0  0  0  0  0  0  0  0  0  0
   -6.5270   -0.6800   -0.2150 C   0  0  0  0  0  0  0  0  0  0  0  0
   -5.8200   -1.8480   -0.4640 C   0  0  0  0  0  0  0  0  0  0  0  0
   -5.8910    0.5330    0.0050 C   0  0  0  0  0  0  0  0  0  0  0  0
   -7.8790   -0.7260   -0.1840 F   0  0  0  0  0  0  0  0  0  0  0  0
  1  3  1  0  0  0  0
  1  4  1  0  0  0  0
  1  6  1  0  0  0  0
  2  4  1  0  0  0  0
  2  5  1  0  0  0  0
  3  5  2  0  0  0  0
  4  9  2  0  0  0  0
  5  8  1  0  0  0  0
  6  7  1  0  0  0  0
  7 13  1  0  0  0  0
  7 14  2  0  0  0  0
  8 15  1  0  0  0  0
  8 16  2  0  0  0  0
 10 11  1  0  0  0  0
 10 12  1  0  0  0  0
 10 17  1  0  0  0  0
 11 12  1  0  0  0  0
 13 17  1  0  0  0  0
 15 20  2  0  0  0  0
 16 19  1  0  0  0  0
 18 19  2  0  0  0  0
 18 20  1  0  0  0  0
 18 21  1  0  0  0  0
M  END
>  <NScode>
NS-017868458-0000

>  <a_acc>
3

>  <a_don>
1

>  <chiral>
0

>  <opr_nrot>
5

>  <Weight>
291.28198

>  <druglike>
1

>  <lip_druglike>
1

>  <lip_violation>
0

>  <logS>
-3.66115

$$$$
