NS-050012728-0000
  MOE2022           3D

 18 19  0  0  1  0  0  0  0  0999 V2000
   -3.8240   -0.6600   -1.2580 O   0  5  0  0  0  0  0  0  0  0  0  0
   -3.7790   -0.4660   -0.0270 C   0  0  0  0  0  0  0  0  0  0  0  0
   -4.6270    0.0700    0.6990 O   0  0  0  0  0  0  0  0  0  0  0  0
   -2.4970   -0.8790    0.6160 C   0  0  0  0  0  0  0  0  0  0  0  0
   -1.3850   -0.3410   -0.2520 C   0  0  3  0  0  0  0  0  0  0  0  0
   -0.1330   -1.1090   -0.1010 N   0  3  0  0  0  0  0  0  0  0  0  0
    0.9730   -0.7270   -1.0270 C   0  0  0  0  0  0  0  0  0  0  0  0
    2.2690   -1.4140   -0.6710 C   0  0  0  0  0  0  0  0  0  0  0  0
    3.4230   -1.2460   -1.3660 N   0  0  0  0  0  0  0  0  0  0  0  0
    4.3660   -1.9970   -0.7750 C   0  0  0  0  0  0  0  0  0  0  0  0
    3.7550   -2.6020    0.2690 C   0  0  0  0  0  0  0  0  0  0  0  0
    2.4450   -2.2320    0.3280 N   0  0  0  0  0  0  0  0  0  0  0  0
   -1.1770    1.1510   -0.0720 C   0  0  0  0  0  0  0  0  0  0  0  0
   -1.6900    2.0380   -0.9790 C   0  0  0  0  0  0  0  0  0  0  0  0
   -1.3180    3.6770   -0.5860 S   0  0  0  0  0  0  0  0  0  0  0  0
   -0.4840    3.1660    0.8350 C   0  0  0  0  0  0  0  0  0  0  0  0
   -0.4930    1.8080    0.9800 C   0  0  0  0  0  0  0  0  0  0  0  0
    0.3330    0.9890    2.4660 Br  0  0  0  0  0  0  0  0  0  0  0  0
  1  2  1  0  0  0  0
  2  3  2  0  0  0  0
  2  4  1  0  0  0  0
  4  5  1  0  0  0  0
  5  6  1  0  0  0  0
  5 13  1  0  0  0  0
  6  7  1  0  0  0  0
  7  8  1  0  0  0  0
  8  9  1  0  0  0  0
  8 12  2  0  0  0  0
  9 10  1  0  0  0  0
 10 11  2  0  0  0  0
 11 12  1  0  0  0  0
 13 14  2  0  0  0  0
 13 17  1  0  0  0  0
 14 15  1  0  0  0  0
 15 16  1  0  0  0  0
 16 17  2  0  0  0  0
 17 18  1  0  0  0  0
M  CHG  1   1  -1
M  CHG  1   6   1
M  END
>  <NScode>
NS-050012728-0000

>  <a_acc>
4

>  <a_don>
5

>  <chiral>
1

>  <opr_nrot>
6

>  <Weight>
330.20599

>  <druglike>
1

>  <lip_druglike>
1

>  <lip_violation>
0

>  <logS>
-1.95122

$$$$
