NS-017764165-0000
  MOE2022           3D

 32 34  0  0  1  0  0  0  0  0999 V2000
   -0.5080   -1.5740   -0.0970 N   0  0  0  0  0  0  0  0  0  0  0  0
   -0.6980   -0.2160   -0.0580 N   0  0  0  0  0  0  0  0  0  0  0  0
    0.8290   -2.0870   -0.5040 C   0  0  3  0  0  0  0  0  0  0  0  0
    1.7880   -2.2560    0.6880 C   0  0  0  0  0  0  0  0  0  0  0  0
   -1.5010   -2.4820    0.2940 C   0  0  0  0  0  0  0  0  0  0  0  0
   -1.8370    0.3090    0.3280 C   0  0  0  0  0  0  0  0  0  0  0  0
    2.2030   -3.4780    1.1300 N   0  0  0  0  0  0  0  0  0  0  0  0
   -0.4460    4.7380   -1.2380 N   0  0  0  0  0  0  0  0  0  0  0  0
    0.9150    4.7350   -1.2830 C   0  0  0  0  0  0  0  0  0  0  0  0
   -1.2730    3.9590   -0.4040 C   0  0  0  0  0  0  0  0  0  0  0  0
   -2.7500   -1.9130    0.6860 C   0  0  0  0  0  0  0  0  0  0  0  0
   -2.9150   -0.5610    0.6990 C   0  0  0  0  0  0  0  0  0  0  0  0
   -1.9680    1.7690    0.3700 C   0  0  0  0  0  0  0  0  0  0  0  0
   -1.1820    2.5720   -0.4670 C   0  0  0  0  0  0  0  0  0  0  0  0
    1.9000   -4.7360    0.5560 C   0  0  0  0  0  0  0  0  0  0  0  0
    2.2300   -1.3220    1.3290 O   0  0  0  0  0  0  0  0  0  0  0  0
   -2.1730    4.5930    0.4590 C   0  0  0  0  0  0  0  0  0  0  0  0
    1.3950    5.4680   -2.1200 O   0  0  0  0  0  0  0  0  0  0  0  0
   -1.2580   -3.6950    0.2800 O   0  0  0  0  0  0  0  0  0  0  0  0
    2.3640   -5.1070   -0.7110 C   0  0  0  0  0  0  0  0  0  0  0  0
   -2.8610    2.4100    1.2490 C   0  0  0  0  0  0  0  0  0  0  0  0
   -2.9650    3.7980    1.2830 C   0  0  0  0  0  0  0  0  0  0  0  0
    1.7810    3.8940   -0.3390 C   0  0  0  0  0  0  0  0  0  0  0  0
    3.1240   -4.2550   -1.4370 F   0  0  0  0  0  0  0  0  0  0  0  0
    1.4610   -1.2590   -1.6430 C   0  0  0  0  0  0  0  0  0  0  0  0
    1.1300   -5.6330    1.2950 C   0  0  0  0  0  0  0  0  0  0  0  0
   -2.2870    6.1050    0.5210 C   0  0  0  0  0  0  0  0  0  0  0  0
    2.0680   -6.3500   -1.2530 C   0  0  0  0  0  0  0  0  0  0  0  0
    2.7850    4.7590    0.4480 C   0  0  0  0  0  0  0  0  0  0  0  0
    2.5070    2.7570   -1.0830 C   0  0  0  0  0  0  0  0  0  0  0  0
    0.8290   -6.8830    0.7560 C   0  0  0  0  0  0  0  0  0  0  0  0
    1.2940   -7.2430   -0.5120 C   0  0  0  0  0  0  0  0  0  0  0  0
  1  2  1  0  0  0  0
  1  3  1  0  0  0  0
  1  5  1  0  0  0  0
  2  6  2  0  0  0  0
  3  4  1  0  0  0  0
  3 25  1  0  0  0  0
  4  7  1  0  0  0  0
  4 16  2  0  0  0  0
  5 11  1  0  0  0  0
  5 19  2  0  0  0  0
  6 12  1  0  0  0  0
  6 13  1  0  0  0  0
  7 15  1  0  0  0  0
  8  9  1  0  0  0  0
  8 10  1  0  0  0  0
  9 18  2  0  0  0  0
  9 23  1  0  0  0  0
 10 14  2  0  0  0  0
 10 17  1  0  0  0  0
 11 12  2  0  0  0  0
 13 14  1  0  0  0  0
 13 21  2  0  0  0  0
 15 20  2  0  0  0  0
 15 26  1  0  0  0  0
 17 22  2  0  0  0  0
 17 27  1  0  0  0  0
 20 24  1  0  0  0  0
 20 28  1  0  0  0  0
 21 22  1  0  0  0  0
 23 29  1  0  0  0  0
 23 30  1  0  0  0  0
 26 31  2  0  0  0  0
 28 32  2  0  0  0  0
 31 32  1  0  0  0  0
M  END
>  <NScode>
NS-017764165-0000

>  <a_acc>
4

>  <a_don>
2

>  <chiral>
1

>  <opr_nrot>
6

>  <Weight>
436.487

>  <druglike>
1

>  <lip_druglike>
1

>  <lip_violation>
0

>  <logS>
-6.0098

$$$$
