NS-021664761-0000
  MOE2022           3D

 25 27  0  0  1  0  0  0  0  0999 V2000
   -6.1890    2.0140   -1.5460 C   0  0  0  0  0  0  0  0  0  0  0  0
   -5.0340    1.0710   -1.2170 C   0  0  0  0  0  0  0  0  0  0  0  0
   -3.9100    1.7900   -0.6600 O   0  0  0  0  0  0  0  0  0  0  0  0
   -2.7740    1.1610   -0.2530 C   0  0  0  0  0  0  0  0  0  0  0  0
   -1.7540    1.9100    0.2850 C   0  0  0  0  0  0  0  0  0  0  0  0
   -0.6180    1.2280    0.6810 C   0  0  0  0  0  0  0  0  0  0  0  0
    0.4520    1.9100    1.2210 N   0  0  0  0  0  0  0  0  0  0  0  0
    1.4000    1.2270    2.1390 C   0  0  0  0  0  0  0  0  0  0  0  0
    2.7840    0.9050    1.5390 C   0  0  2  0  0  0  0  0  0  0  0  0
    3.6130    2.0790    1.3790 O   0  0  0  0  0  0  0  0  0  0  0  0
    3.2270    2.9850    0.3330 C   0  0  0  0  0  0  0  0  0  0  0  0
    2.7810    2.2600   -0.9620 C   0  0  0  0  0  0  0  0  0  0  0  0
    3.2020    0.8040   -1.0370 N   0  3  3  0  0  0  0  0  0  0  0  0
    4.6850    0.6500   -1.2570 C   0  0  0  0  0  0  0  0  0  0  0  0
    5.0490   -0.3970   -2.3060 C   0  0  0  0  0  0  0  0  0  0  0  0
    2.6800    0.0820    0.2130 C   0  0  1  0  0  0  0  0  0  0  0  0
    3.2250   -1.3200    0.3610 C   0  0  0  0  0  0  0  0  0  0  0  0
    4.4210   -1.7090    0.9580 C   0  0  0  0  0  0  0  0  0  0  0  0
    4.5810   -2.9970    0.8820 N   0  0  0  0  0  0  0  0  0  0  0  0
    3.4820   -3.4600    0.2450 N   0  0  0  0  0  0  0  0  0  0  0  0
    3.2900   -4.8670   -0.0360 C   0  0  0  0  0  0  0  0  0  0  0  0
    2.6440   -2.4570   -0.0900 C   0  0  0  0  0  0  0  0  0  0  0  0
   -0.5180   -0.0880    0.5400 N   0  0  0  0  0  0  0  0  0  0  0  0
   -1.5550   -0.7440    0.0210 C   0  0  0  0  0  0  0  0  0  0  0  0
   -2.6760   -0.1610   -0.3840 N   0  0  0  0  0  0  0  0  0  0  0  0
  1  2  1  0  0  0  0
  2  3  1  0  0  0  0
  3  4  1  0  0  0  0
  4  5  1  0  0  0  0
  4 25  2  0  0  0  0
  5  6  2  0  0  0  0
  6  7  1  0  0  0  0
  6 23  1  0  0  0  0
  7  8  1  0  0  0  0
  8  9  1  0  0  0  0
  9 10  1  0  0  0  0
  9 16  1  0  0  0  0
 10 11  1  0  0  0  0
 11 12  1  0  0  0  0
 12 13  1  0  0  0  0
 13 14  1  0  0  0  0
 13 16  1  0  0  0  0
 14 15  1  0  0  0  0
 16 17  1  0  0  0  0
 17 18  1  0  0  0  0
 17 22  2  0  0  0  0
 18 19  2  0  0  0  0
 19 20  1  0  0  0  0
 20 21  1  0  0  0  0
 20 22  1  0  0  0  0
 23 24  2  0  0  0  0
 24 25  1  0  0  0  0
M  CHG  1  13   1
M  END
>  <NScode>
NS-021664761-0000

>  <a_acc>
5

>  <a_don>
1

>  <chiral>
2

>  <opr_nrot>
9

>  <Weight>
346.435

>  <druglike>
1

>  <lip_druglike>
1

>  <lip_violation>
0

>  <logS>
-1.69884

$$$$
