NS-024059620-00001-cycloheptyl-3-(4-ethoxy-3-methoxyphenyl)-4-propylpiperazin...
  MOE2022           3D

 29 31  0  0  1  0  0  0  0  0999 V2000
   -1.5280    1.0570   -1.4130 C   0  0  0  0  0  0  0  0  0  0  0  0
   -2.0990    1.4790   -0.2600 N   0  0  0  0  0  0  0  0  0  0  0  0
   -2.5680   -1.2380   -1.1220 N   0  0  0  0  0  0  0  0  0  0  0  0
   -1.4120   -0.4590   -1.6460 C   0  0  3  0  0  0  0  0  0  0  0  0
   -3.1240   -0.8490    0.0400 C   0  0  0  0  0  0  0  0  0  0  0  0
   -2.6920    0.4950    0.6720 C   0  0  0  0  0  0  0  0  0  0  0  0
   -0.0590   -0.9820   -1.1570 C   0  0  0  0  0  0  0  0  0  0  0  0
    0.0770   -1.7670   -0.0050 C   0  0  0  0  0  0  0  0  0  0  0  0
    1.3360   -2.2100    0.4070 C   0  0  0  0  0  0  0  0  0  0  0  0
   -1.1150    1.8460   -2.2610 O   0  0  0  0  0  0  0  0  0  0  0  0
   -2.1690    2.9000    0.1340 C   0  0  0  0  0  0  0  0  0  0  0  0
   -3.9840   -1.5210    0.6010 O   0  0  0  0  0  0  0  0  0  0  0  0
    1.0870   -0.6350   -1.8790 C   0  0  0  0  0  0  0  0  0  0  0  0
    2.4780   -1.8500   -0.3300 C   0  0  0  0  0  0  0  0  0  0  0  0
    2.3450   -1.0650   -1.4690 C   0  0  0  0  0  0  0  0  0  0  0  0
   -3.0330   -2.4390   -1.8330 C   0  0  0  0  0  0  0  0  0  0  0  0
    1.4420   -3.0060    1.5430 O   0  0  0  0  0  0  0  0  0  0  0  0
    3.7810   -2.2180   -0.0150 O   0  0  0  0  0  0  0  0  0  0  0  0
   -3.1530    3.6880   -0.7510 C   0  0  0  0  0  0  0  0  0  0  0  0
   -0.7660    3.5260    0.2760 C   0  0  0  0  0  0  0  0  0  0  0  0
    4.2350   -2.9700    1.1250 C   0  0  0  0  0  0  0  0  0  0  0  0
    0.3400   -3.5690    2.2930 C   0  0  0  0  0  0  0  0  0  0  0  0
   -2.2470   -3.7080   -1.4750 C   0  0  0  0  0  0  0  0  0  0  0  0
    5.7560   -3.1000    1.1300 C   0  0  0  0  0  0  0  0  0  0  0  0
   -2.7750   -4.9600   -2.1820 C   0  0  0  0  0  0  0  0  0  0  0  0
   -3.3720    5.1590   -0.3600 C   0  0  0  0  0  0  0  0  0  0  0  0
   -0.7380    4.7960    1.1400 C   0  0  0  0  0  0  0  0  0  0  0  0
   -1.0670    6.0980    0.3910 C   0  0  0  0  0  0  0  0  0  0  0  0
   -2.1540    6.0350   -0.6940 C   0  0  0  0  0  0  0  0  0  0  0  0
  1  2  1  0  0  0  0
  1  4  1  0  0  0  0
  1 10  2  0  0  0  0
  2  6  1  0  0  0  0
  2 11  1  0  0  0  0
  3  4  1  0  0  0  0
  3  5  1  0  0  0  0
  3 16  1  0  0  0  0
  4  7  1  0  0  0  0
  5  6  1  0  0  0  0
  5 12  2  0  0  0  0
  7  8  2  0  0  0  0
  7 13  1  0  0  0  0
  8  9  1  0  0  0  0
  9 14  2  0  0  0  0
  9 17  1  0  0  0  0
 11 19  1  0  0  0  0
 11 20  1  0  0  0  0
 13 15  2  0  0  0  0
 14 15  1  0  0  0  0
 14 18  1  0  0  0  0
 16 23  1  0  0  0  0
 17 22  1  0  0  0  0
 18 21  1  0  0  0  0
 19 26  1  0  0  0  0
 20 27  1  0  0  0  0
 21 24  1  0  0  0  0
 23 25  1  0  0  0  0
 26 29  1  0  0  0  0
 27 28  1  0  0  0  0
 28 29  1  0  0  0  0
M  END
>  <NScode>
NS-024059620-0000

>  <a_acc>
4

>  <a_don>
0

>  <chiral>
1

>  <opr_nrot>
10

>  <Weight>
402.535

>  <druglike>
1

>  <lip_druglike>
1

>  <lip_violation>
0

>  <logS>
-4.5837498

$$$$
