NS-012356026-0000
  MOE2022           3D

 27 30  0  0  0  0  0  0  0  0999 V2000
    8.2700   -4.6490    1.5310 N   0  0  0  0  0  0  0  0  0  0  0  0
    8.8270   -3.7030    0.7350 C   0  0  0  0  0  0  0  0  0  0  0  0
   10.1810   -3.7430    0.1920 C   0  0  0  0  0  0  0  0  0  0  0  0
    7.9460   -2.7590    0.5550 N   0  0  0  0  0  0  0  0  0  0  0  0
    7.0170   -4.2470    1.7930 C   0  0  0  0  0  0  0  0  0  0  0  0
    6.7950   -3.1000    1.2210 N   0  0  0  0  0  0  0  0  0  0  0  0
   12.0660   -2.9620   -0.7290 N   0  0  0  0  0  0  0  0  0  0  0  0
   11.0270   -4.7980    0.0210 C   0  0  0  0  0  0  0  0  0  0  0  0
   12.1520   -4.2970   -0.5290 N   0  0  0  0  0  0  0  0  0  0  0  0
   10.8790   -2.6360   -0.2970 C   0  0  0  0  0  0  0  0  0  0  0  0
    5.9080   -5.1820    2.7660 S   0  0  0  0  0  0  0  0  0  0  0  0
    0.9090   -4.7960   -0.5750 C   0  0  0  0  0  0  0  0  0  0  0  0
    1.0020   -4.6610    0.8020 C   0  0  0  0  0  0  0  0  0  0  0  0
    3.2500   -4.6190    3.5150 C   0  0  0  0  0  0  0  0  0  0  0  0
    1.8400   -5.5170   -1.2930 C   0  0  0  0  0  0  0  0  0  0  0  0
    2.1970   -5.1500    2.8360 N   0  0  0  0  0  0  0  0  0  0  0  0
   -0.0510   -4.2700   -1.3760 O   0  0  0  0  0  0  0  0  0  0  0  0
    1.5630   -5.5180   -2.6230 O   0  0  0  0  0  0  0  0  0  0  0  0
    2.0820   -5.2800    1.4380 C   0  0  0  0  0  0  0  0  0  0  0  0
    0.3440   -4.7090   -2.7190 C   0  0  0  0  0  0  0  0  0  0  0  0
    3.1400   -4.6180    4.7220 O   0  0  0  0  0  0  0  0  0  0  0  0
    4.4650   -4.0530    2.8050 C   0  0  0  0  0  0  0  0  0  0  0  0
    2.9110   -6.1450   -0.6680 C   0  0  0  0  0  0  0  0  0  0  0  0
    8.8940   -5.8660    2.0450 C   0  0  0  0  0  0  0  0  0  0  0  0
    3.0290   -6.0280    0.7190 C   0  0  0  0  0  0  0  0  0  0  0  0
   13.3300   -5.0610   -0.9170 C   0  0  0  0  0  0  0  0  0  0  0  0
   13.2280   -5.7090   -2.3080 C   0  0  0  0  0  0  0  0  0  0  0  0
  1  2  1  0  0  0  0
  1  5  1  0  0  0  0
  1 24  1  0  0  0  0
  2  3  1  0  0  0  0
  2  4  2  0  0  0  0
  3  8  2  0  0  0  0
  3 10  1  0  0  0  0
  4  6  1  0  0  0  0
  5  6  2  0  0  0  0
  5 11  1  0  0  0  0
  7  9  1  0  0  0  0
  7 10  2  0  0  0  0
  8  9  1  0  0  0  0
  9 26  1  0  0  0  0
 11 22  1  0  0  0  0
 12 13  2  0  0  0  0
 12 15  1  0  0  0  0
 12 17  1  0  0  0  0
 13 19  1  0  0  0  0
 14 16  1  0  0  0  0
 14 21  2  0  0  0  0
 14 22  1  0  0  0  0
 15 18  1  0  0  0  0
 15 23  2  0  0  0  0
 16 19  1  0  0  0  0
 17 20  1  0  0  0  0
 18 20  1  0  0  0  0
 19 25  2  0  0  0  0
 23 25  1  0  0  0  0
 26 27  1  0  0  0  0
M  END
>  <NScode>
NS-012356026-0000

>  <a_acc>
6

>  <a_don>
1

>  <chiral>
0

>  <opr_nrot>
6

>  <Weight>
386.436

>  <druglike>
1

>  <lip_druglike>
1

>  <lip_violation>
0

>  <logS>
-4.79498

$$$$
