NS-016306908-0000
  MOE2022           3D

 27 29  0  0  0  0  0  0  0  0999 V2000
   -1.0250   -2.1890   -1.0410 S   0  0  0  0  0  0  0  0  0  0  0  0
   -0.0970   -3.7070   -0.9310 C   0  0  0  0  0  0  0  0  0  0  0  0
   -0.7940   -1.4510    0.4270 N   0  0  0  0  0  0  0  0  0  0  0  0
    0.4560   -5.7390   -0.3210 N   0  0  0  0  0  0  0  0  0  0  0  0
    1.0470   -4.0370   -1.5560 C   0  0  0  0  0  0  0  0  0  0  0  0
   -0.4320   -4.8190   -0.1680 C   0  0  0  0  0  0  0  0  0  0  0  0
    1.3710   -5.2700   -1.1730 O   0  0  0  0  0  0  0  0  0  0  0  0
    0.2000    1.8530    2.0770 C   0  0  0  0  0  0  0  0  0  0  0  0
   -2.4040   -2.5050   -1.1810 O   0  0  0  0  0  0  0  0  0  0  0  0
   -0.4550   -1.3750   -2.0600 O   0  0  0  0  0  0  0  0  0  0  0  0
    0.0300    3.1560    2.3880 O   0  0  0  0  0  0  0  0  0  0  0  0
    0.1310    1.3630    0.6250 C   0  0  0  0  0  0  0  0  0  0  0  0
   -1.7190   -0.3840    0.8140 C   0  0  0  0  0  0  0  0  0  0  0  0
    0.5730   -1.1580    0.8790 C   0  0  0  0  0  0  0  0  0  0  0  0
    0.3550    1.0970    3.0070 O   0  0  0  0  0  0  0  0  0  0  0  0
   -1.3060    0.9710    0.2160 C   0  0  0  0  0  0  0  0  0  0  0  0
    1.0950    0.1870    0.3360 C   0  0  0  0  0  0  0  0  0  0  0  0
   -0.1840    4.1630    1.4760 C   0  0  0  0  0  0  0  0  0  0  0  0
   -0.6220    6.1770   -0.3560 C   0  0  0  0  0  0  0  0  0  0  0  0
   -1.4920    4.5610    1.2060 C   0  0  0  0  0  0  0  0  0  0  0  0
    0.9080    4.7650    0.8550 C   0  0  0  0  0  0  0  0  0  0  0  0
   -1.7150    5.5750    0.2790 C   0  0  0  0  0  0  0  0  0  0  0  0
    0.6840    5.7790   -0.0710 C   0  0  0  0  0  0  0  0  0  0  0  0
    1.9170   -3.2830   -2.5350 C   0  0  0  0  0  0  0  0  0  0  0  0
   -1.6400   -4.9780    0.7230 C   0  0  0  0  0  0  0  0  0  0  0  0
   -0.7810    7.1870   -1.2800 O   0  0  0  0  0  0  0  0  0  0  0  0
   -2.0490    7.7550   -1.6780 C   0  0  0  0  0  0  0  0  0  0  0  0
  1  2  1  0  0  0  0
  1  3  1  0  0  0  0
  1  9  2  0  0  0  0
  1 10  2  0  0  0  0
  2  5  2  0  0  0  0
  2  6  1  0  0  0  0
  3 13  1  0  0  0  0
  3 14  1  0  0  0  0
  4  6  2  0  0  0  0
  4  7  1  0  0  0  0
  5  7  1  0  0  0  0
  5 24  1  0  0  0  0
  6 25  1  0  0  0  0
  8 11  1  0  0  0  0
  8 12  1  0  0  0  0
  8 15  2  0  0  0  0
 11 18  1  0  0  0  0
 12 16  1  0  0  0  0
 12 17  1  0  0  0  0
 13 16  1  0  0  0  0
 14 17  1  0  0  0  0
 18 20  2  0  0  0  0
 18 21  1  0  0  0  0
 19 22  2  0  0  0  0
 19 23  1  0  0  0  0
 19 26  1  0  0  0  0
 20 22  1  0  0  0  0
 21 23  2  0  0  0  0
 26 27  1  0  0  0  0
M  END
>  <NScode>
NS-016306908-0000

>  <a_acc>
5

>  <a_don>
0

>  <chiral>
0

>  <opr_nrot>
6

>  <Weight>
394.448

>  <druglike>
1

>  <lip_druglike>
1

>  <lip_violation>
0

>  <logS>
-3.07131

$$$$
