NS-027271514-0000
  MOE2022           3D

 14 14  0  0  0  0  0  0  0  0999 V2000
    2.1150    4.0380    0.6050 C   0  0  0  0  0  0  0  0  0  0  0  0
    0.9480    3.2020    0.4450 O   0  0  0  0  0  0  0  0  0  0  0  0
    0.9540    1.8290    0.2660 C   0  0  0  0  0  0  0  0  0  0  0  0
    2.1620    1.1310    0.1790 C   0  0  0  0  0  0  0  0  0  0  0  0
    2.1560   -0.2470   -0.0250 C   0  0  0  0  0  0  0  0  0  0  0  0
    3.4560   -1.0160   -0.1150 C   0  0  0  0  0  0  0  0  0  0  0  0
    0.9430   -0.9200   -0.1380 C   0  0  0  0  0  0  0  0  0  0  0  0
   -0.2600   -0.2130   -0.0480 C   0  0  0  0  0  0  0  0  0  0  0  0
   -1.4720   -0.8690   -0.1800 O   0  0  0  0  0  0  0  0  0  0  0  0
   -1.6470   -2.2910   -0.3610 C   0  0  0  0  0  0  0  0  0  0  0  0
   -0.2750    1.1680    0.1670 C   0  0  0  0  0  0  0  0  0  0  0  0
   -1.5870    1.9350    0.2590 C   0  0  0  0  0  0  0  0  0  0  0  0
   -2.0440    2.4290   -1.1110 C   0  0  0  0  0  0  0  0  0  0  0  0
   -3.2610    3.1450   -0.9830 O   0  0  0  0  0  0  0  0  0  0  0  0
  1  2  1  0  0  0  0
  2  3  1  0  0  0  0
  3  4  1  0  0  0  0
  3 11  2  0  0  0  0
  4  5  2  0  0  0  0
  5  6  1  0  0  0  0
  5  7  1  0  0  0  0
  7  8  2  0  0  0  0
  8  9  1  0  0  0  0
  8 11  1  0  0  0  0
  9 10  1  0  0  0  0
 11 12  1  0  0  0  0
 12 13  1  0  0  0  0
 13 14  1  0  0  0  0
M  END
>  <NScode>
NS-027271514-0000

>  <a_acc>
3

>  <a_don>
1

>  <chiral>
0

>  <opr_nrot>
4

>  <Weight>
196.246

>  <druglike>
1

>  <lip_druglike>
1

>  <lip_violation>
0

>  <logS>
-1.79205

$$$$
