NS-017398442-0000
  MOE2022           3D

 25 27  0  0  1  0  0  0  0  0999 V2000
   -0.1360   -0.7040   -0.2200 N   0  0  0  0  0  0  0  0  0  0  0  0
   -1.1710   -0.6460    0.6460 C   0  0  0  0  0  0  0  0  0  0  0  0
   -2.5140   -2.8370    0.2180 N   0  0  0  0  0  0  0  0  0  0  0  0
    1.0000    1.5420   -0.1360 C   0  0  0  0  0  0  0  0  0  0  0  0
    1.1030    0.0320    0.0480 C   0  0  3  0  0  0  0  0  0  0  0  0
   -2.1050   -3.6200    1.2990 C   0  0  0  0  0  0  0  0  0  0  0  0
    1.8870    2.3870    0.5420 C   0  0  0  0  0  0  0  0  0  0  0  0
   -2.4920   -1.3510    0.3350 C   0  0  0  0  0  0  0  0  0  0  0  0
    0.0510    2.1120   -0.9910 C   0  0  0  0  0  0  0  0  0  0  0  0
    1.8200    3.7730    0.3940 C   0  0  0  0  0  0  0  0  0  0  0  0
   -2.9680   -3.4190   -0.9640 C   0  0  0  0  0  0  0  0  0  0  0  0
   -1.0890    0.0590    1.6480 O   0  0  0  0  0  0  0  0  0  0  0  0
   -2.1170   -5.0420    1.1290 C   0  0  0  0  0  0  0  0  0  0  0  0
   -1.7650   -3.0560    2.3410 O   0  0  0  0  0  0  0  0  0  0  0  0
   -2.9820   -4.7770   -1.1000 C   0  0  0  0  0  0  0  0  0  0  0  0
   -2.5410   -5.6100   -0.0340 C   0  0  0  0  0  0  0  0  0  0  0  0
    0.8600    4.3150   -0.4500 C   0  0  0  0  0  0  0  0  0  0  0  0
    0.0690   -1.6580   -1.3070 C   0  0  0  0  0  0  0  0  0  0  0  0
   -0.0250    3.4940   -1.1500 C   0  0  0  0  0  0  0  0  0  0  0  0
    2.8420    1.8090    1.3600 O   0  0  0  0  0  0  0  0  0  0  0  0
    2.1340   -0.5740   -0.9030 C   0  0  0  0  0  0  0  0  0  0  0  0
    0.8270    5.6890   -0.5630 O   0  0  0  0  0  0  0  0  0  0  0  0
    1.5750   -1.9250   -1.3400 C   0  0  0  0  0  0  0  0  0  0  0  0
    3.6810    2.5340    2.2860 C   0  0  0  0  0  0  0  0  0  0  0  0
   -0.1450    6.4260   -1.3370 C   0  0  0  0  0  0  0  0  0  0  0  0
  1  2  1  0  0  0  0
  1  5  1  0  0  0  0
  1 18  1  0  0  0  0
  2  8  1  0  0  0  0
  2 12  2  0  0  0  0
  3  6  1  0  0  0  0
  3  8  1  0  0  0  0
  3 11  1  0  0  0  0
  4  5  1  0  0  0  0
  4  7  2  0  0  0  0
  4  9  1  0  0  0  0
  5 21  1  0  0  0  0
  6 13  1  0  0  0  0
  6 14  2  0  0  0  0
  7 10  1  0  0  0  0
  7 20  1  0  0  0  0
  9 19  2  0  0  0  0
 10 17  2  0  0  0  0
 11 15  2  0  0  0  0
 13 16  2  0  0  0  0
 15 16  1  0  0  0  0
 17 19  1  0  0  0  0
 17 22  1  0  0  0  0
 18 23  1  0  0  0  0
 20 24  1  0  0  0  0
 21 23  1  0  0  0  0
 22 25  1  0  0  0  0
M  END
>  <NScode>
NS-017398442-0000

>  <a_acc>
4

>  <a_don>
0

>  <chiral>
1

>  <opr_nrot>
6

>  <Weight>
342.39499

>  <druglike>
1

>  <lip_druglike>
1

>  <lip_violation>
0

>  <logS>
-3.07197

$$$$
