NS-042455476-0000
  MOE2022           3D

 16 16  0  0  0  0  0  0  0  0999 V2000
    1.2880   -3.7450    0.9960 C   0  0  0  0  0  0  0  0  0  0  0  0
    1.1530   -3.0230   -0.3370 C   0  0  0  0  0  0  0  0  0  0  0  0
    1.0440   -3.7030   -1.3520 O   0  0  0  0  0  0  0  0  0  0  0  0
    1.1370   -1.6780   -0.3590 N   0  0  0  0  0  0  0  0  0  0  0  0
    0.9490   -0.9580   -1.6380 C   0  0  0  0  0  0  0  0  0  0  0  0
    0.1650    0.3430   -1.4320 C   0  0  0  0  0  0  0  0  0  0  0  0
    0.9260    1.3660   -0.5320 C   0  0  0  0  0  0  0  0  0  0  0  0
   -0.1140    2.3220    0.1310 C   0  0  0  0  0  0  0  0  0  0  0  0
   -1.0590    1.7390    1.2040 C   0  0  0  0  0  0  0  0  0  0  0  0
   -2.0070    2.7800    1.7590 C   0  0  0  0  0  0  0  0  0  0  0  0
   -3.3410    2.6770    1.6730 C   0  0  0  0  0  0  0  0  0  0  0  0
    1.7480    0.5880    0.5400 C   0  0  0  0  0  0  0  0  0  0  0  0
    1.2530   -0.8350    0.8500 C   0  0  0  0  0  0  0  0  0  0  0  0
    1.9340    2.2260   -1.3610 C   0  0  0  0  0  0  0  0  0  0  0  0
    2.0460    2.0140   -2.5900 O   0  5  0  0  0  0  0  0  0  0  0  0
    2.6050    3.0750   -0.7300 O   0  0  0  0  0  0  0  0  0  0  0  0
  1  2  1  0  0  0  0
  2  3  2  0  0  0  0
  2  4  1  0  0  0  0
  4  5  1  0  0  0  0
  4 13  1  0  0  0  0
  5  6  1  0  0  0  0
  6  7  1  0  0  0  0
  7  8  1  0  0  0  0
  7 12  1  0  0  0  0
  7 14  1  0  0  0  0
  8  9  1  0  0  0  0
  9 10  1  0  0  0  0
 10 11  2  0  0  0  0
 12 13  1  0  0  0  0
 14 15  1  0  0  0  0
 14 16  2  0  0  0  0
M  CHG  1  15  -1
M  END
>  <NScode>
NS-042455476-0000

>  <a_acc>
2

>  <a_don>
2

>  <chiral>
0

>  <opr_nrot>
6

>  <Weight>
225.28799

>  <druglike>
1

>  <lip_druglike>
1

>  <lip_violation>
0

>  <logS>
-1.36401

$$$$
