NS-024056184-00004-methyl-N-[(5-phenyl-1,2,4-oxadiazol-3-yl)methyl]benzamide
  MOE2022           3D

 22 24  0  0  0  0  0  0  0  0999 V2000
    1.6270    2.5210   -0.0020 N   0  0  0  0  0  0  0  0  0  0  0  0
    0.5310    3.1760    0.1540 C   0  0  0  0  0  0  0  0  0  0  0  0
    1.2490    1.2410    0.1560 C   0  0  0  0  0  0  0  0  0  0  0  0
   -0.0050    1.1150    0.3990 N   0  0  0  0  0  0  0  0  0  0  0  0
   -0.4730    2.3430    0.3980 O   0  0  0  0  0  0  0  0  0  0  0  0
    2.2930   -2.4080   -0.0670 C   0  0  0  0  0  0  0  0  0  0  0  0
    1.5830   -1.2520    0.0690 N   0  0  0  0  0  0  0  0  0  0  0  0
    1.6060   -3.7060   -0.0080 C   0  0  0  0  0  0  0  0  0  0  0  0
    0.3110    4.6190    0.0920 C   0  0  0  0  0  0  0  0  0  0  0  0
    3.5020   -2.2880   -0.2250 O   0  0  0  0  0  0  0  0  0  0  0  0
    2.2210    0.0720    0.0610 C   0  0  0  0  0  0  0  0  0  0  0  0
    0.2100   -3.8130   -0.1170 C   0  0  0  0  0  0  0  0  0  0  0  0
    2.3520   -4.8800    0.1600 C   0  0  0  0  0  0  0  0  0  0  0  0
    1.7250   -6.1190    0.2300 C   0  0  0  0  0  0  0  0  0  0  0  0
   -0.4140   -5.0540   -0.0440 C   0  0  0  0  0  0  0  0  0  0  0  0
    0.3390   -6.2110    0.1350 C   0  0  0  0  0  0  0  0  0  0  0  0
    1.3850    5.4920   -0.1390 C   0  0  0  0  0  0  0  0  0  0  0  0
   -0.9700    5.1690    0.2600 C   0  0  0  0  0  0  0  0  0  0  0  0
   -0.3420   -7.5600    0.2040 C   0  0  0  0  0  0  0  0  0  0  0  0
   -1.1670    6.5440    0.1980 C   0  0  0  0  0  0  0  0  0  0  0  0
    1.1860    6.8660   -0.1990 C   0  0  0  0  0  0  0  0  0  0  0  0
   -0.0900    7.3940   -0.0310 C   0  0  0  0  0  0  0  0  0  0  0  0
  1  2  2  0  0  0  0
  1  3  1  0  0  0  0
  2  5  1  0  0  0  0
  2  9  1  0  0  0  0
  3  4  2  0  0  0  0
  3 11  1  0  0  0  0
  4  5  1  0  0  0  0
  6  7  1  0  0  0  0
  6  8  1  0  0  0  0
  6 10  2  0  0  0  0
  7 11  1  0  0  0  0
  8 12  1  0  0  0  0
  8 13  2  0  0  0  0
  9 17  1  0  0  0  0
  9 18  2  0  0  0  0
 12 15  2  0  0  0  0
 13 14  1  0  0  0  0
 14 16  2  0  0  0  0
 15 16  1  0  0  0  0
 16 19  1  0  0  0  0
 17 21  2  0  0  0  0
 18 20  1  0  0  0  0
 20 22  2  0  0  0  0
 21 22  1  0  0  0  0
M  END
>  <NScode>
NS-024056184-0000

>  <a_acc>
3

>  <a_don>
1

>  <chiral>
0

>  <opr_nrot>
4

>  <Weight>
293.32599

>  <druglike>
1

>  <lip_druglike>
1

>  <lip_violation>
0

>  <logS>
-5.5716801

$$$$
