NS-019306579-0000
  MOE2022           3D

 24 27  0  0  0  0  0  0  0  0999 V2000
    2.9170    2.3210    0.3840 C   0  0  0  0  0  0  0  0  0  0  0  0
   -3.9120   -3.1270    1.2590 C   0  0  0  0  0  0  0  0  0  0  0  0
    1.7750    2.9010    0.0190 N   0  0  0  0  0  0  0  0  0  0  0  0
   -3.1570   -3.9920    0.4950 N   0  0  0  0  0  0  0  0  0  0  0  0
    3.8100    3.2320    0.5840 N   0  0  0  0  0  0  0  0  0  0  0  0
   -3.0970   -2.1020    1.6310 N   0  0  0  0  0  0  0  0  0  0  0  0
    1.7770    0.0740    0.3140 N   0  0  0  0  0  0  0  0  0  0  0  0
    3.2120    4.4450    0.3430 N   0  0  0  0  0  0  0  0  0  0  0  0
   -1.8270   -2.3080    1.1150 C   0  0  0  0  0  0  0  0  0  0  0  0
   -1.8650   -3.4930    0.4070 C   0  0  0  0  0  0  0  0  0  0  0  0
    1.7410   -1.2730    0.6300 C   0  0  0  0  0  0  0  0  0  0  0  0
    1.9830    4.2190    0.0090 C   0  0  0  0  0  0  0  0  0  0  0  0
    3.0530    0.8140    0.5120 C   0  0  0  0  0  0  0  0  0  0  0  0
    0.4890   -2.0240    0.5680 C   0  0  0  0  0  0  0  0  0  0  0  0
    0.5500    2.1660   -0.2670 C   0  0  0  0  0  0  0  0  0  0  0  0
   -0.6660   -1.5540    1.2180 C   0  0  0  0  0  0  0  0  0  0  0  0
   -0.7320   -3.9920   -0.2310 C   0  0  0  0  0  0  0  0  0  0  0  0
    0.8210    0.6970   -0.6200 C   0  0  0  0  0  0  0  0  0  0  0  0
   -5.0960   -3.2370    1.5610 O   0  0  0  0  0  0  0  0  0  0  0  0
    0.4440   -3.2510   -0.1410 C   0  0  0  0  0  0  0  0  0  0  0  0
    2.7990   -1.7990    0.9500 O   0  0  0  0  0  0  0  0  0  0  0  0
   -3.6580   -5.2360   -0.0780 C   0  0  0  0  0  0  0  0  0  0  0  0
    0.9070    5.2290   -0.3490 C   0  0  0  0  0  0  0  0  0  0  0  0
    1.3370    6.6880   -0.1580 C   0  0  0  0  0  0  0  0  0  0  0  0
  1  3  1  0  0  0  0
  1  5  2  0  0  0  0
  1 13  1  0  0  0  0
  2  4  1  0  0  0  0
  2  6  1  0  0  0  0
  2 19  2  0  0  0  0
  3 12  1  0  0  0  0
  3 15  1  0  0  0  0
  4 10  1  0  0  0  0
  4 22  1  0  0  0  0
  5  8  1  0  0  0  0
  6  9  1  0  0  0  0
  7 11  1  0  0  0  0
  7 13  1  0  0  0  0
  7 18  1  0  0  0  0
  8 12  2  0  0  0  0
  9 10  1  0  0  0  0
  9 16  2  0  0  0  0
 10 17  2  0  0  0  0
 11 14  1  0  0  0  0
 11 21  2  0  0  0  0
 12 23  1  0  0  0  0
 14 16  1  0  0  0  0
 14 20  2  0  0  0  0
 15 18  1  0  0  0  0
 17 20  1  0  0  0  0
 23 24  1  0  0  0  0
M  END
>  <NScode>
NS-019306579-0000

>  <a_acc>
4

>  <a_don>
1

>  <chiral>
0

>  <opr_nrot>
3

>  <Weight>
326.35999

>  <druglike>
1

>  <lip_druglike>
1

>  <lip_violation>
0

>  <logS>
-1.97583

$$$$
