NS-015241364-0000
  MOE2022           3D

 32 35  0  0  0  0  0  0  0  0999 V2000
   -0.6420    1.5500    0.4460 N   0  0  0  0  0  0  0  0  0  0  0  0
   -1.8950   -3.6810   -0.2500 N   0  0  0  0  0  0  0  0  0  0  0  0
   -1.3080    0.7570   -0.4030 C   0  0  0  0  0  0  0  0  0  0  0  0
   -0.3060   -2.8200    1.4780 C   0  0  0  0  0  0  0  0  0  0  0  0
    0.1450    2.3380   -0.3100 C   0  0  0  0  0  0  0  0  0  0  0  0
   -0.4200   -3.4190    0.0430 C   0  0  0  0  0  0  0  0  0  0  0  0
   -0.9420    1.0200   -1.6250 N   0  0  0  0  0  0  0  0  0  0  0  0
   -0.0140    2.0340   -1.5540 N   0  0  0  0  0  0  0  0  0  0  0  0
   -1.1140   -3.3180    2.4650 N   0  0  0  0  0  0  0  0  0  0  0  0
   -2.1520   -4.1750    2.2310 C   0  0  0  0  0  0  0  0  0  0  0  0
   -2.7810   -2.9790   -1.0020 C   0  0  0  0  0  0  0  0  0  0  0  0
   -2.5110   -4.5700    0.7990 C   0  0  0  0  0  0  0  0  0  0  0  0
   -2.4510   -0.4430    0.1480 S   0  0  0  0  0  0  0  0  0  0  0  0
    0.4480   -1.9360    1.8280 O   0  0  0  0  0  0  0  0  0  0  0  0
    1.0560    3.4140    0.2440 C   0  0  0  0  0  0  0  0  0  0  0  0
   -2.6190   -1.5080   -1.3370 C   0  0  0  0  0  0  0  0  0  0  0  0
   -2.7420   -4.5700    3.2060 O   0  0  0  0  0  0  0  0  0  0  0  0
   -3.8460   -3.5150   -1.2920 O   0  0  0  0  0  0  0  0  0  0  0  0
    0.3810    4.3050    1.1770 O   0  0  0  0  0  0  0  0  0  0  0  0
   -0.7730    1.5330    1.9000 C   0  0  0  0  0  0  0  0  0  0  0  0
   -0.6330    5.1900    0.8610 C   0  0  0  0  0  0  0  0  0  0  0  0
   -2.6730    7.0060    0.3530 C   0  0  0  0  0  0  0  0  0  0  0  0
    0.2760   -2.5290   -1.0310 C   0  0  0  0  0  0  0  0  0  0  0  0
    0.3060   -4.8020    0.0050 C   0  0  0  0  0  0  0  0  0  0  0  0
   -3.9430    8.1390    0.0380 Cl  0  0  0  0  0  0  0  0  0  0  0  0
   -1.1520    5.3020   -0.4320 C   0  0  0  0  0  0  0  0  0  0  0  0
   -1.1280    5.9790    1.8970 C   0  0  0  0  0  0  0  0  0  0  0  0
   -2.1490    6.8890    1.6430 C   0  0  0  0  0  0  0  0  0  0  0  0
   -2.1740    6.2130   -0.6830 C   0  0  0  0  0  0  0  0  0  0  0  0
    1.8390   -4.7450    0.0980 C   0  0  0  0  0  0  0  0  0  0  0  0
    1.8150   -2.5030   -1.0020 C   0  0  0  0  0  0  0  0  0  0  0  0
    2.4040   -3.9130   -1.0540 C   0  0  0  0  0  0  0  0  0  0  0  0
  1  3  1  0  0  0  0
  1  5  1  0  0  0  0
  1 20  1  0  0  0  0
  2  6  1  0  0  0  0
  2 11  1  0  0  0  0
  2 12  1  0  0  0  0
  3  7  2  0  0  0  0
  3 13  1  0  0  0  0
  4  6  1  0  0  0  0
  4  9  1  0  0  0  0
  4 14  2  0  0  0  0
  5  8  2  0  0  0  0
  5 15  1  0  0  0  0
  6 23  1  0  0  0  0
  6 24  1  0  0  0  0
  7  8  1  0  0  0  0
  9 10  1  0  0  0  0
 10 12  1  0  0  0  0
 10 17  2  0  0  0  0
 11 16  1  0  0  0  0
 11 18  2  0  0  0  0
 13 16  1  0  0  0  0
 15 19  1  0  0  0  0
 19 21  1  0  0  0  0
 21 26  1  0  0  0  0
 21 27  2  0  0  0  0
 22 25  1  0  0  0  0
 22 28  2  0  0  0  0
 22 29  1  0  0  0  0
 23 31  1  0  0  0  0
 24 30  1  0  0  0  0
 26 29  2  0  0  0  0
 27 28  1  0  0  0  0
 30 32  1  0  0  0  0
 31 32  1  0  0  0  0
M  END
>  <NScode>
NS-015241364-0000

>  <a_acc>
6

>  <a_don>
1

>  <chiral>
0

>  <opr_nrot>
8

>  <Weight>
477.97299

>  <druglike>
1

>  <lip_druglike>
1

>  <lip_violation>
0

>  <logS>
-6.1313601

$$$$
