NS-011425663-0000
  MOE2022           3D

 24 26  0  0  0  0  0  0  0  0999 V2000
    1.7050    1.4260    0.3070 C   0  0  0  0  0  0  0  0  0  0  0  0
    3.1600    1.4800    0.3420 C   0  0  0  0  0  0  0  0  0  0  0  0
   -0.3680    0.6090    0.1940 N   0  0  0  0  0  0  0  0  0  0  0  0
   -0.3910    1.9560    0.3300 N   0  0  0  0  0  0  0  0  0  0  0  0
    5.3400    1.8900    0.1540 C   0  0  0  0  0  0  0  0  0  0  0  0
    0.8910    0.2930    0.1760 C   0  0  0  0  0  0  0  0  0  0  0  0
    0.8560    2.4850    0.4000 C   0  0  0  0  0  0  0  0  0  0  0  0
    4.0670    2.3000   -0.2440 C   0  0  0  0  0  0  0  0  0  0  0  0
    5.2440    0.8400    0.9700 N   0  0  0  0  0  0  0  0  0  0  0  0
    3.9120    0.6140    1.0700 N   0  0  0  0  0  0  0  0  0  0  0  0
    6.5990    2.5250   -0.2570 C   0  0  0  0  0  0  0  0  0  0  0  0
   12.2850    2.4010   -0.8820 N   0  0  0  0  0  0  0  0  0  0  0  0
   11.5750    2.3670    0.2070 C   0  0  0  0  0  0  0  0  0  0  0  0
   12.2530    3.2180    1.5470 S   0  0  0  0  0  0  0  0  0  0  0  0
   13.4300    3.1170   -0.6890 C   0  0  0  0  0  0  0  0  0  0  0  0
   10.2420    1.6750    0.3380 C   0  0  0  0  0  0  0  0  0  0  0  0
   13.5830    3.6320    0.5580 C   0  0  0  0  0  0  0  0  0  0  0  0
    6.6800    3.5170   -0.9800 O   0  0  0  0  0  0  0  0  0  0  0  0
    7.7680    1.9820    0.2040 N   0  0  0  0  0  0  0  0  0  0  0  0
    9.0780    2.6080    0.0070 C   0  0  0  0  0  0  0  0  0  0  0  0
   -1.6570    2.6800    0.3530 C   0  0  0  0  0  0  0  0  0  0  0  0
    1.3380   -1.1380    0.0180 C   0  0  0  0  0  0  0  0  0  0  0  0
    1.1380    3.9680    0.5510 C   0  0  0  0  0  0  0  0  0  0  0  0
   -2.1160    3.1920   -1.0240 C   0  0  0  0  0  0  0  0  0  0  0  0
  1  2  1  0  0  0  0
  1  6  1  0  0  0  0
  1  7  2  0  0  0  0
  2  8  2  0  0  0  0
  2 10  1  0  0  0  0
  3  4  1  0  0  0  0
  3  6  2  0  0  0  0
  4  7  1  0  0  0  0
  4 21  1  0  0  0  0
  5  8  1  0  0  0  0
  5  9  2  0  0  0  0
  5 11  1  0  0  0  0
  6 22  1  0  0  0  0
  7 23  1  0  0  0  0
  9 10  1  0  0  0  0
 11 18  2  0  0  0  0
 11 19  1  0  0  0  0
 12 13  2  0  0  0  0
 12 15  1  0  0  0  0
 13 14  1  0  0  0  0
 13 16  1  0  0  0  0
 14 17  1  0  0  0  0
 15 17  2  0  0  0  0
 16 20  1  0  0  0  0
 19 20  1  0  0  0  0
 21 24  1  0  0  0  0
M  END
>  <NScode>
NS-011425663-0000

>  <a_acc>
5

>  <a_don>
3

>  <chiral>
0

>  <opr_nrot>
6

>  <Weight>
344.44299

>  <druglike>
1

>  <lip_druglike>
1

>  <lip_violation>
0

>  <logS>
-2.3300099

$$$$
