NS-021531504-0000
  MOE2022           3D

 21 23  0  0  1  0  0  0  0  0999 V2000
    2.6300    1.6790    1.4790 C   0  0  0  0  0  0  0  0  0  0  0  0
    3.5990    2.0860    0.4750 C   0  0  0  0  0  0  0  0  0  0  0  0
    1.3840    1.1530    1.2380 N   0  0  0  0  0  0  0  0  0  0  0  0
    3.5670    1.5740   -0.7570 N   0  0  0  0  0  0  0  0  0  0  0  0
    5.4180    2.8330   -1.4070 N   0  0  0  0  0  0  0  0  0  0  0  0
    5.5060    3.3760   -0.1970 C   0  0  0  0  0  0  0  0  0  0  0  0
    4.5930    3.0130    0.7740 C   0  0  0  0  0  0  0  0  0  0  0  0
    0.7070    0.8960    2.3860 N   0  0  0  0  0  0  0  0  0  0  0  0
    4.4620    1.9490   -1.6560 C   0  0  0  0  0  0  0  0  0  0  0  0
    2.7090    1.7330    2.8390 C   0  0  0  0  0  0  0  0  0  0  0  0
    1.5190    1.2450    3.3460 C   0  0  0  0  0  0  0  0  0  0  0  0
    7.2680    4.1390    1.3790 N   0  0  0  0  0  0  0  0  0  0  0  0
    6.6030    4.3960    0.0830 C   0  0  3  0  0  0  0  0  0  0  0  0
    0.7230    0.9050   -0.0420 C   0  0  0  0  0  0  0  0  0  0  0  0
    4.3810    1.3550   -3.0340 C   0  0  0  0  0  0  0  0  0  0  0  0
    8.3910    5.0850    1.5820 C   0  0  0  0  0  0  0  0  0  0  0  0
    6.0690    5.8380    0.0390 C   0  0  0  0  0  0  0  0  0  0  0  0
    0.1940    2.1730   -0.7400 C   0  0  0  0  0  0  0  0  0  0  0  0
    7.8860    6.5320    1.6060 C   0  0  0  0  0  0  0  0  0  0  0  0
   -0.4780    1.8830   -2.0870 C   0  0  0  0  0  0  0  0  0  0  0  0
    7.1660    6.8820    0.2960 C   0  0  0  0  0  0  0  0  0  0  0  0
  1  2  1  0  0  0  0
  1  3  1  0  0  0  0
  1 10  2  0  0  0  0
  2  4  1  0  0  0  0
  2  7  2  0  0  0  0
  3  8  1  0  0  0  0
  3 14  1  0  0  0  0
  4  9  2  0  0  0  0
  5  6  2  0  0  0  0
  5  9  1  0  0  0  0
  6  7  1  0  0  0  0
  6 13  1  0  0  0  0
  8 11  2  0  0  0  0
  9 15  1  0  0  0  0
 10 11  1  0  0  0  0
 12 13  1  0  0  0  0
 12 16  1  0  0  0  0
 13 17  1  0  0  0  0
 14 18  1  0  0  0  0
 16 19  1  0  0  0  0
 17 21  1  0  0  0  0
 18 20  1  0  0  0  0
 19 21  1  0  0  0  0
M  END
>  <NScode>
NS-021531504-0000

>  <a_acc>
4

>  <a_don>
1

>  <chiral>
1

>  <opr_nrot>
6

>  <Weight>
285.39499

>  <druglike>
1

>  <lip_druglike>
1

>  <lip_violation>
0

>  <logS>
-2.15061

$$$$
