NS-014984136-0000
  MOE2022           3D

 30 34  0  0  0  0  0  0  0  0999 V2000
   -5.1230    1.8510   -0.2200 C   0  0  0  0  0  0  0  0  0  0  0  0
   -4.3270    2.8450    0.0460 N   0  0  0  0  0  0  0  0  0  0  0  0
   -4.3850    0.3110   -0.5400 S   0  0  0  0  0  0  0  0  0  0  0  0
    6.7000   -1.9840   -0.6250 N   0  0  0  0  0  0  0  0  0  0  0  0
   -2.8540    1.0580   -0.2980 C   0  0  0  0  0  0  0  0  0  0  0  0
   -6.5140    1.9940   -0.2460 N   0  0  0  0  0  0  0  0  0  0  0  0
    7.5910   -1.5770   -1.5790 N   0  0  0  0  0  0  0  0  0  0  0  0
    1.9310    0.9060    0.4910 C   0  0  0  0  0  0  0  0  0  0  0  0
   -3.0210    2.4080    0.0070 C   0  0  0  0  0  0  0  0  0  0  0  0
    7.1230   -3.1270    0.0000 C   0  0  0  0  0  0  0  0  0  0  0  0
    0.7970    0.6360   -0.2510 N   0  0  0  0  0  0  0  0  0  0  0  0
   -1.5910    0.4600   -0.3790 C   0  0  0  0  0  0  0  0  0  0  0  0
    5.4900   -1.2650   -0.3480 C   0  0  0  0  0  0  0  0  0  0  0  0
    8.2970   -3.4370   -0.5910 C   0  0  0  0  0  0  0  0  0  0  0  0
    3.1470    0.1410    0.2000 C   0  0  0  0  0  0  0  0  0  0  0  0
    8.5460   -2.4610   -1.5500 C   0  0  0  0  0  0  0  0  0  0  0  0
   -0.4770    1.2510   -0.1410 C   0  0  0  0  0  0  0  0  0  0  0  0
    1.8840    1.7690    1.3570 O   0  0  0  0  0  0  0  0  0  0  0  0
   -1.8790    3.1930    0.2390 C   0  0  0  0  0  0  0  0  0  0  0  0
    4.2570   -1.8740   -0.5910 C   0  0  0  0  0  0  0  0  0  0  0  0
    5.5750    0.0310    0.1600 C   0  0  0  0  0  0  0  0  0  0  0  0
    4.4040    0.7250    0.4360 C   0  0  0  0  0  0  0  0  0  0  0  0
    3.0910   -1.1710   -0.3110 C   0  0  0  0  0  0  0  0  0  0  0  0
   -9.2590    2.5560   -1.0290 O   0  0  0  0  0  0  0  0  0  0  0  0
   -0.6160    2.6250    0.1630 C   0  0  0  0  0  0  0  0  0  0  0  0
   -7.3200    1.0300   -1.0280 C   0  0  0  0  0  0  0  0  0  0  0  0
   -7.0430    3.3760   -0.3200 C   0  0  0  0  0  0  0  0  0  0  0  0
    6.3690   -3.8220    1.1160 C   0  0  0  0  0  0  0  0  0  0  0  0
   -8.5740    3.4470   -0.1450 C   0  0  0  0  0  0  0  0  0  0  0  0
   -8.8390    1.2080   -0.8190 C   0  0  0  0  0  0  0  0  0  0  0  0
  1  2  2  0  0  0  0
  1  3  1  0  0  0  0
  1  6  1  0  0  0  0
  2  9  1  0  0  0  0
  3  5  1  0  0  0  0
  4  7  1  0  0  0  0
  4 10  1  0  0  0  0
  4 13  1  0  0  0  0
  5  9  1  0  0  0  0
  5 12  2  0  0  0  0
  6 26  1  0  0  0  0
  6 27  1  0  0  0  0
  7 16  2  0  0  0  0
  8 11  1  0  0  0  0
  8 15  1  0  0  0  0
  8 18  2  0  0  0  0
  9 19  2  0  0  0  0
 10 14  2  0  0  0  0
 10 28  1  0  0  0  0
 11 17  1  0  0  0  0
 12 17  1  0  0  0  0
 13 20  1  0  0  0  0
 13 21  2  0  0  0  0
 14 16  1  0  0  0  0
 15 22  2  0  0  0  0
 15 23  1  0  0  0  0
 17 25  2  0  0  0  0
 19 25  1  0  0  0  0
 20 23  2  0  0  0  0
 21 22  1  0  0  0  0
 24 29  1  0  0  0  0
 24 30  1  0  0  0  0
 26 30  1  0  0  0  0
 27 29  1  0  0  0  0
M  END
>  <NScode>
NS-014984136-0000

>  <a_acc>
4

>  <a_don>
1

>  <chiral>
0

>  <opr_nrot>
6

>  <Weight>
419.509

>  <druglike>
1

>  <lip_druglike>
1

>  <lip_violation>
0

>  <logS>
-5.3279099

$$$$
