NS-013131074-0000
  MOE2022           3D

 17 18  0  0  0  0  0  0  0  0999 V2000
   -3.6570   -0.3990   -1.4200 N   0  0  0  0  0  0  0  0  0  0  0  0
   -3.2650   -0.5120   -0.1930 C   0  0  0  0  0  0  0  0  0  0  0  0
    4.0350    0.0050   -1.0580 S   0  0  0  0  0  0  0  0  0  0  0  0
    2.6960    0.3390   -0.0540 C   0  0  0  0  0  0  0  0  0  0  0  0
    2.9020    1.2970    0.8100 N   0  0  0  0  0  0  0  0  0  0  0  0
    4.1730    1.8150    0.7050 N   0  0  0  0  0  0  0  0  0  0  0  0
   -1.9600   -0.1940    0.0390 N   0  0  0  0  0  0  0  0  0  0  0  0
    4.8690    1.2400   -0.2210 C   0  0  0  0  0  0  0  0  0  0  0  0
   -4.9730   -0.7290   -1.5360 C   0  0  0  0  0  0  0  0  0  0  0  0
   -4.3860   -1.0010    1.0280 S   0  0  0  0  0  0  0  0  0  0  0  0
   -1.2110   -0.3780    1.1730 C   0  0  0  0  0  0  0  0  0  0  0  0
    1.2100   -0.5610   -0.2320 S   0  0  0  0  0  0  0  0  0  0  0  0
   -5.5730   -0.6980   -2.5900 O   0  0  0  0  0  0  0  0  0  0  0  0
   -5.6530   -1.1330   -0.2570 C   0  0  0  0  0  0  0  0  0  0  0  0
   -1.6570   -0.9570    2.1330 O   0  0  0  0  0  0  0  0  0  0  0  0
    0.2070    0.1430    1.1300 C   0  0  0  0  0  0  0  0  0  0  0  0
    6.2930    1.5890   -0.5720 C   0  0  0  0  0  0  0  0  0  0  0  0
  1  2  2  0  0  0  0
  1  9  1  0  0  0  0
  2  7  1  0  0  0  0
  2 10  1  0  0  0  0
  3  4  1  0  0  0  0
  3  8  1  0  0  0  0
  4  5  2  0  0  0  0
  4 12  1  0  0  0  0
  5  6  1  0  0  0  0
  6  8  2  0  0  0  0
  7 11  1  0  0  0  0
  8 17  1  0  0  0  0
  9 13  2  0  0  0  0
  9 14  1  0  0  0  0
 10 14  1  0  0  0  0
 11 15  2  0  0  0  0
 11 16  1  0  0  0  0
 12 16  1  0  0  0  0
M  END
>  <NScode>
NS-013131074-0000

>  <a_acc>
5

>  <a_don>
1

>  <chiral>
0

>  <opr_nrot>
4

>  <Weight>
288.37601

>  <druglike>
1

>  <lip_druglike>
1

>  <lip_violation>
0

>  <logS>
-4.5754199

$$$$
