NS-020352309-0000
  MOE2022           3D

 24 25  0  0  1  0  0  0  0  0999 V2000
   -1.7900    3.4190    1.2840 C   0  0  0  0  0  0  0  0  0  0  0  0
   -2.1040    2.9000   -0.1220 C   0  0  0  0  0  0  0  0  0  0  0  0
   -3.1120    3.8870   -0.7200 C   0  0  0  0  0  0  0  0  0  0  0  0
   -0.8120    2.8440   -0.9560 C   0  0  0  0  0  0  0  0  0  0  0  0
   -0.2260    1.4330   -1.1380 C   0  0  0  0  0  0  0  0  0  0  0  0
   -1.3120    0.5660   -1.7860 C   0  0  0  0  0  0  0  0  0  0  0  0
   -2.6810    0.6110   -1.0640 C   0  0  0  0  0  0  0  0  0  0  0  0
   -2.9770   -0.7570   -0.4470 C   0  0  0  0  0  0  0  0  0  0  0  0
   -3.8140    0.8880   -2.0580 C   0  0  0  0  0  0  0  0  0  0  0  0
   -2.6850    1.5660    0.0520 N   0  3  0  0  0  0  0  0  0  0  0  0
    0.1930    0.8290    0.1230 N   0  0  0  0  0  0  0  0  0  0  0  0
    1.2980    1.2070    0.7660 C   0  0  0  0  0  0  0  0  0  0  0  0
    1.8980    2.2280    0.4740 O   0  0  0  0  0  0  0  0  0  0  0  0
    1.7870    0.3300    1.9090 C   0  0  0  0  0  0  0  0  0  0  0  0
    2.3570   -1.0240    1.4470 C   0  0  3  0  0  0  0  0  0  0  0  0
    3.6200   -0.8400    0.5690 C   0  0  0  0  0  0  0  0  0  0  0  0
    4.3280   -2.1000    0.2520 C   0  0  0  0  0  0  0  0  0  0  0  0
    4.8960   -3.1150   -0.0040 C   0  0  0  0  0  0  0  0  0  0  0  0
    1.2550   -1.9090    0.8550 C   0  0  0  0  0  0  0  0  0  0  0  0
    1.1230   -2.1320   -0.5190 C   0  0  0  0  0  0  0  0  0  0  0  0
    0.1030   -2.9420   -1.0080 C   0  0  0  0  0  0  0  0  0  0  0  0
   -0.8010   -3.5330   -0.1330 C   0  0  0  0  0  0  0  0  0  0  0  0
   -0.6820   -3.3120    1.2340 C   0  0  0  0  0  0  0  0  0  0  0  0
    0.3400   -2.5060    1.7240 C   0  0  0  0  0  0  0  0  0  0  0  0
  1  2  1  0  0  0  0
  2  3  1  0  0  0  0
  2  4  1  0  0  0  0
  2 10  1  0  0  0  0
  4  5  1  0  0  0  0
  5  6  1  0  0  0  0
  5 11  1  0  0  0  0
  6  7  1  0  0  0  0
  7  8  1  0  0  0  0
  7  9  1  0  0  0  0
  7 10  1  0  0  0  0
 11 12  1  0  0  0  0
 12 13  2  0  0  0  0
 12 14  1  0  0  0  0
 14 15  1  0  0  0  0
 15 16  1  0  0  0  0
 15 19  1  0  0  0  0
 16 17  1  0  0  0  0
 17 18  3  0  0  0  0
 19 20  1  0  0  0  0
 19 24  2  0  0  0  0
 20 21  2  0  0  0  0
 21 22  1  0  0  0  0
 22 23  2  0  0  0  0
 23 24  1  0  0  0  0
M  CHG  1  10   1
M  END
>  <NScode>
NS-020352309-0000

>  <a_acc>
2

>  <a_don>
2

>  <chiral>
1

>  <opr_nrot>
8

>  <Weight>
326.48398

>  <druglike>
1

>  <lip_druglike>
1

>  <lip_violation>
0

>  <logS>
-4.0911398

$$$$
