NS-013190375-0000
  MOE2022           3D

 31 33  0  0  1  0  0  0  0  0999 V2000
    2.2170    1.3450    1.3200 N   0  0  0  0  0  0  0  0  0  0  0  0
    2.2020    0.8650    2.6150 C   0  0  0  0  0  0  0  0  0  0  0  0
    2.7840    0.4130    0.4770 C   0  0  0  0  0  0  0  0  0  0  0  0
   -1.1450   -2.0080    2.0790 C   0  0  0  0  0  0  0  0  0  0  0  0
    3.2910   -0.7720    1.2720 C   0  0  3  0  0  0  0  0  0  0  0  0
    2.7280   -0.5390    2.6690 C   0  0  0  0  0  0  0  0  0  0  0  0
   -1.4650   -3.0060    3.1950 C   0  0  0  0  0  0  0  0  0  0  0  0
    2.1140   -2.2870   -0.8780 C   0  0  0  0  0  0  0  0  0  0  0  0
    2.9370   -2.4570    0.6130 S   0  0  0  0  0  0  0  0  0  0  0  0
    0.9150   -1.7160   -1.0090 N   0  0  0  0  0  0  0  0  0  0  0  0
    1.6850    2.6090    0.9000 C   0  0  0  0  0  0  0  0  0  0  0  0
   -1.7400   -0.7340    2.0770 C   0  0  0  0  0  0  0  0  0  0  0  0
   -0.2600   -2.3380    1.0410 C   0  0  0  0  0  0  0  0  0  0  0  0
    1.7950    1.4990    3.5550 O   0  0  0  0  0  0  0  0  0  0  0  0
    2.7880    0.5250   -0.7320 O   0  0  0  0  0  0  0  0  0  0  0  0
    0.0250   -1.4060    0.0420 C   0  0  0  0  0  0  0  0  0  0  0  0
    2.6940   -2.7570   -1.9710 N   0  3  0  0  0  0  0  0  0  0  0  0
   -1.0920   -2.5540    4.3980 F   0  0  0  0  0  0  0  0  0  0  0  0
   -0.8170   -4.1710    3.0260 F   0  0  0  0  0  0  0  0  0  0  0  0
   -2.7660   -3.3120    3.2570 F   0  0  0  0  0  0  0  0  0  0  0  0
    2.4010    3.3880   -0.0160 C   0  0  0  0  0  0  0  0  0  0  0  0
    0.4510    3.0400    1.3980 C   0  0  0  0  0  0  0  0  0  0  0  0
   -1.4590    0.1800    1.0560 C   0  0  0  0  0  0  0  0  0  0  0  0
   -0.5750   -0.1510    0.0380 C   0  0  0  0  0  0  0  0  0  0  0  0
   -2.8360   -0.2270    3.3160 Cl  0  0  0  0  0  0  0  0  0  0  0  0
    0.6240    5.0140    0.0300 C   0  0  0  0  0  0  0  0  0  0  0  0
   -0.0800    4.2460    0.9560 C   0  0  0  0  0  0  0  0  0  0  0  0
    1.8670    4.5950   -0.4540 C   0  0  0  0  0  0  0  0  0  0  0  0
    0.0400    6.1930   -0.3780 O   0  0  0  0  0  0  0  0  0  0  0  0
    2.1780   -2.7080   -3.3500 C   0  0  0  0  0  0  0  0  0  0  0  0
    0.6230    7.1290   -1.3120 C   0  0  0  0  0  0  0  0  0  0  0  0
  1  2  1  0  0  0  0
  1  3  1  0  0  0  0
  1 11  1  0  0  0  0
  2  6  1  0  0  0  0
  2 14  2  0  0  0  0
  3  5  1  0  0  0  0
  3 15  2  0  0  0  0
  4  7  1  0  0  0  0
  4 12  1  0  0  0  0
  4 13  2  0  0  0  0
  5  6  1  0  0  0  0
  5  9  1  0  0  0  0
  7 18  1  0  0  0  0
  7 19  1  0  0  0  0
  7 20  1  0  0  0  0
  8  9  1  0  0  0  0
  8 10  1  0  0  0  0
  8 17  2  0  0  0  0
 10 16  1  0  0  0  0
 11 21  1  0  0  0  0
 11 22  2  0  0  0  0
 12 23  2  0  0  0  0
 12 25  1  0  0  0  0
 13 16  1  0  0  0  0
 16 24  2  0  0  0  0
 17 30  1  0  0  0  0
 21 28  2  0  0  0  0
 22 27  1  0  0  0  0
 23 24  1  0  0  0  0
 26 27  2  0  0  0  0
 26 28  1  0  0  0  0
 26 29  1  0  0  0  0
 29 31  1  0  0  0  0
M  CHG  1  17   1
M  END
>  <NScode>
NS-013190375-0000

>  <a_acc>
4

>  <a_don>
1

>  <chiral>
1

>  <opr_nrot>
6

>  <Weight>
471.88699

>  <druglike>
1

>  <lip_druglike>
1

>  <lip_violation>
0

>  <logS>
-6.8793101

$$$$
