NS-009572358-0000
  MOE2022           3D

 12 13  0  0  0  0  0  0  0  0999 V2000
    3.2040    1.8920   -0.0260 C   0  0  0  0  0  0  0  0  0  0  0  0
    3.1230    0.5430   -0.0180 N   0  0  0  0  0  0  0  0  0  0  0  0
    1.9290    2.3320   -0.0160 N   0  3  0  0  0  0  0  0  0  0  0  0
    1.0530    1.2710   -0.0020 C   0  0  0  0  0  0  0  0  0  0  0  0
    1.8000    0.1460   -0.0030 C   0  0  0  0  0  0  0  0  0  0  0  0
    4.4500    2.5720   -0.0430 C   0  0  0  0  0  0  0  0  0  0  0  0
    4.2660   -0.2390   -0.0240 C   0  0  0  0  0  0  0  0  0  0  0  0
    5.4890    0.3910   -0.0400 C   0  0  0  0  0  0  0  0  0  0  0  0
    5.5930    1.8100   -0.0490 C   0  0  0  0  0  0  0  0  0  0  0  0
    4.5160    4.4600   -0.0540 Br  0  0  0  0  0  0  0  0  0  0  0  0
   -0.4600    1.4040    0.0130 C   0  0  0  0  0  0  0  0  0  0  0  0
   -1.0920    0.1040    0.0220 O   0  0  0  0  0  0  0  0  0  0  0  0
  1  2  1  0  0  0  0
  1  3  2  0  0  0  0
  1  6  1  0  0  0  0
  2  5  1  0  0  0  0
  2  7  1  0  0  0  0
  3  4  1  0  0  0  0
  4  5  2  0  0  0  0
  4 11  1  0  0  0  0
  6  9  2  0  0  0  0
  6 10  1  0  0  0  0
  7  8  2  0  0  0  0
  8  9  1  0  0  0  0
 11 12  1  0  0  0  0
M  CHG  1   3   1
M  END
>  <NScode>
NS-009572358-0000

>  <a_acc>
2

>  <a_don>
1

>  <chiral>
0

>  <opr_nrot>
1

>  <Weight>
227.06099

>  <druglike>
1

>  <lip_druglike>
1

>  <lip_violation>
0

>  <logS>
-1.69874

$$$$
