NS-014100468-0000
  MOE2022           3D

 28 31  0  0  0  0  0  0  0  0999 V2000
    3.5540   -0.8520    0.9150 N   0  0  0  0  0  0  0  0  0  0  0  0
   -1.3440   -0.7530    0.9430 C   0  0  0  0  0  0  0  0  0  0  0  0
   -3.3200   -0.2090    0.2460 N   0  0  0  0  0  0  0  0  0  0  0  0
   -2.7720    0.9400    0.7350 N   0  0  0  0  0  0  0  0  0  0  0  0
    3.7950    0.2650    1.6660 N   0  0  0  0  0  0  0  0  0  0  0  0
   -2.4520   -1.2620    0.3520 C   0  0  0  0  0  0  0  0  0  0  0  0
    4.4030   -1.2740   -0.0980 C   0  0  0  0  0  0  0  0  0  0  0  0
   -1.5880    0.6040    1.1520 C   0  0  0  0  0  0  0  0  0  0  0  0
    4.8250    0.9960    1.4570 N   0  0  0  0  0  0  0  0  0  0  0  0
    5.5610   -0.4510   -0.3550 C   0  0  0  0  0  0  0  0  0  0  0  0
    2.3360   -1.5890    1.2150 C   0  0  0  0  0  0  0  0  0  0  0  0
    5.7460    0.6830    0.4440 C   0  0  0  0  0  0  0  0  0  0  0  0
   -0.0790   -1.4980    1.3170 C   0  0  0  0  0  0  0  0  0  0  0  0
    1.1280   -0.9190    0.7020 N   0  0  0  0  0  0  0  0  0  0  0  0
   -4.6450   -0.2530   -0.3080 C   0  0  0  0  0  0  0  0  0  0  0  0
    4.1300   -2.3120   -0.7060 O   0  0  0  0  0  0  0  0  0  0  0  0
   -2.7780   -2.6640   -0.1280 C   0  0  0  0  0  0  0  0  0  0  0  0
    6.4920   -0.7500   -1.3630 C   0  0  0  0  0  0  0  0  0  0  0  0
   -0.6390    1.6020    1.7630 C   0  0  0  0  0  0  0  0  0  0  0  0
    1.0620   -1.0040   -0.7730 C   0  0  0  0  0  0  0  0  0  0  0  0
    6.8570    1.5080    0.2300 C   0  0  0  0  0  0  0  0  0  0  0  0
   -5.6220   -1.0390    0.3060 C   0  0  0  0  0  0  0  0  0  0  0  0
   -4.9220    0.4930   -1.4530 C   0  0  0  0  0  0  0  0  0  0  0  0
    7.5890    0.0740   -1.5680 C   0  0  0  0  0  0  0  0  0  0  0  0
    7.7720    1.2050   -0.7690 C   0  0  0  0  0  0  0  0  0  0  0  0
   -6.2010    0.4390   -2.0000 C   0  0  0  0  0  0  0  0  0  0  0  0
   -6.8960   -1.0840   -0.2500 C   0  0  0  0  0  0  0  0  0  0  0  0
   -7.1840   -0.3500   -1.4010 C   0  0  0  0  0  0  0  0  0  0  0  0
  1  5  1  0  0  0  0
  1  7  1  0  0  0  0
  1 11  1  0  0  0  0
  2  6  2  0  0  0  0
  2  8  1  0  0  0  0
  2 13  1  0  0  0  0
  3  4  1  0  0  0  0
  3  6  1  0  0  0  0
  3 15  1  0  0  0  0
  4  8  2  0  0  0  0
  5  9  2  0  0  0  0
  6 17  1  0  0  0  0
  7 10  1  0  0  0  0
  7 16  2  0  0  0  0
  8 19  1  0  0  0  0
  9 12  1  0  0  0  0
 10 12  2  0  0  0  0
 10 18  1  0  0  0  0
 11 14  1  0  0  0  0
 12 21  1  0  0  0  0
 13 14  1  0  0  0  0
 14 20  1  0  0  0  0
 15 22  1  0  0  0  0
 15 23  2  0  0  0  0
 18 24  2  0  0  0  0
 21 25  2  0  0  0  0
 22 27  2  0  0  0  0
 23 26  1  0  0  0  0
 24 25  1  0  0  0  0
 26 28  2  0  0  0  0
 27 28  1  0  0  0  0
M  END
>  <NScode>
NS-014100468-0000

>  <a_acc>
5

>  <a_don>
0

>  <chiral>
0

>  <opr_nrot>
5

>  <Weight>
374.448

>  <druglike>
1

>  <lip_druglike>
1

>  <lip_violation>
0

>  <logS>
-3.9066999

$$$$
