NS-014955434-0000
  MOE2022           3D

 24 27  0  0  1  0  0  0  0  0999 V2000
    2.8350    0.7830   -0.0500 N   0  0  0  0  0  0  0  0  0  0  0  0
    2.0250    0.6370    0.9950 C   0  0  0  0  0  0  0  0  0  0  0  0
    1.7810    1.8010    1.5010 N   0  0  0  0  0  0  0  0  0  0  0  0
    2.4950    2.6810    0.7430 N   0  0  0  0  0  0  0  0  0  0  0  0
    3.1440    2.0660   -0.2010 N   0  0  0  0  0  0  0  0  0  0  0  0
    3.3390   -0.2570   -0.9300 C   0  0  0  0  0  0  0  0  0  0  0  0
    1.4120   -0.9100    1.5240 S   0  0  0  0  0  0  0  0  0  0  0  0
   -2.3070    0.1450   -0.1520 C   0  0  0  0  0  0  0  0  0  0  0  0
   -3.2010    0.2930    0.9270 C   0  0  0  0  0  0  0  0  0  0  0  0
   -4.5140    0.6730    0.6860 C   0  0  0  0  0  0  0  0  0  0  0  0
   -0.9160   -0.2620    0.0530 C   0  0  0  0  0  0  0  0  0  0  0  0
   -4.9580    0.9090   -0.5940 C   0  0  0  0  0  0  0  0  0  0  0  0
   -0.3720   -0.5150    1.4510 C   0  0  0  0  0  0  0  0  0  0  0  0
   -2.7810    0.3930   -1.4560 C   0  0  0  0  0  0  0  0  0  0  0  0
    5.2260   -1.6410   -1.5390 O   0  0  0  0  0  0  0  0  0  0  0  0
   -0.1690   -0.4240   -0.8940 O   0  0  0  0  0  0  0  0  0  0  0  0
   -4.1020    0.7730   -1.6780 C   0  0  0  0  0  0  0  0  0  0  0  0
    4.8020   -0.6230   -0.6580 C   0  0  3  0  0  0  0  0  0  0  0  0
   -5.6210    0.8780    1.6810 C   0  0  0  0  0  0  0  0  0  0  0  0
   -6.7780    1.5240    0.8870 C   0  0  0  0  0  0  0  0  0  0  0  0
   -6.4090    1.2960   -0.5960 C   0  0  0  0  0  0  0  0  0  0  0  0
    6.4410   -2.1650   -1.0370 C   0  0  0  0  0  0  0  0  0  0  0  0
    5.0660   -1.2390    0.7130 C   0  0  0  0  0  0  0  0  0  0  0  0
    6.3630   -2.0150    0.4830 C   0  0  0  0  0  0  0  0  0  0  0  0
  1  2  1  0  0  0  0
  1  5  1  0  0  0  0
  1  6  1  0  0  0  0
  2  3  2  0  0  0  0
  2  7  1  0  0  0  0
  3  4  1  0  0  0  0
  4  5  2  0  0  0  0
  6 18  1  0  0  0  0
  7 13  1  0  0  0  0
  8  9  1  0  0  0  0
  8 11  1  0  0  0  0
  8 14  2  0  0  0  0
  9 10  2  0  0  0  0
 10 12  1  0  0  0  0
 10 19  1  0  0  0  0
 11 13  1  0  0  0  0
 11 16  2  0  0  0  0
 12 17  2  0  0  0  0
 12 21  1  0  0  0  0
 14 17  1  0  0  0  0
 15 18  1  0  0  0  0
 15 22  1  0  0  0  0
 18 23  1  0  0  0  0
 19 20  1  0  0  0  0
 20 21  1  0  0  0  0
 22 24  1  0  0  0  0
 23 24  1  0  0  0  0
M  END
>  <NScode>
NS-014955434-0000

>  <a_acc>
5

>  <a_don>
0

>  <chiral>
1

>  <opr_nrot>
7

>  <Weight>
344.439

>  <druglike>
1

>  <lip_druglike>
1

>  <lip_violation>
0

>  <logS>
-5.0079002

$$$$
