NS-022401846-0000
  MOE2022           3D

 24 26  0  0  1  0  0  0  0  0999 V2000
    3.7770   -2.6960    0.1630 N   0  0  0  0  0  0  0  0  0  0  0  0
    1.6650   -3.9770   -0.5760 C   0  0  3  0  0  0  0  0  0  0  0  0
    0.3780   -4.6110   -0.0760 C   0  0  0  0  0  0  0  0  0  0  0  0
    2.4980   -3.3610    0.5780 C   0  0  0  0  0  0  0  0  0  0  0  0
    1.3780   -2.9750   -1.6190 O   0  0  0  0  0  0  0  0  0  0  0  0
   -0.7650   -3.8330    0.1190 C   0  0  0  0  0  0  0  0  0  0  0  0
    4.9510   -3.5880    0.3580 C   0  0  0  0  0  0  0  0  0  0  0  0
   11.4520   -6.3730   -0.2530 O   0  0  0  0  0  0  0  0  0  0  0  0
    6.3320   -2.9000    0.2330 C   0  0  3  0  0  0  0  0  0  0  0  0
    8.6910   -3.2250   -0.1650 O   0  0  0  0  0  0  0  0  0  0  0  0
   -1.9190   -4.4380    0.5980 C   0  0  0  0  0  0  0  0  0  0  0  0
    7.4690   -3.9190    0.1010 C   0  0  0  0  0  0  0  0  0  0  0  0
    9.8820   -4.0010   -0.2780 C   0  0  0  0  0  0  0  0  0  0  0  0
    2.2620   -1.8090   -1.6680 C   0  0  0  0  0  0  0  0  0  0  0  0
   -3.0250   -3.6800    0.7890 F   0  0  0  0  0  0  0  0  0  0  0  0
    3.6970   -2.1650   -1.2290 C   0  0  0  0  0  0  0  0  0  0  0  0
    6.6140   -2.1160    1.3790 O   0  0  0  0  0  0  0  0  0  0  0  0
    9.8320   -5.0180   -1.4260 C   0  0  0  0  0  0  0  0  0  0  0  0
   10.2620   -4.7050    1.0300 C   0  0  0  0  0  0  0  0  0  0  0  0
    0.3320   -5.9790    0.2160 C   0  0  0  0  0  0  0  0  0  0  0  0
   11.1730   -5.7530   -1.5030 C   0  0  0  0  0  0  0  0  0  0  0  0
   11.5790   -5.4620    0.8320 C   0  0  0  0  0  0  0  0  0  0  0  0
   -0.8400   -6.5680    0.6960 C   0  0  0  0  0  0  0  0  0  0  0  0
   -1.9790   -5.7930    0.8920 C   0  0  0  0  0  0  0  0  0  0  0  0
  1  4  1  0  0  0  0
  1  7  1  0  0  0  0
  1 16  1  0  0  0  0
  2  3  1  0  0  0  0
  2  4  1  0  0  0  0
  2  5  1  0  0  0  0
  3  6  2  0  0  0  0
  3 20  1  0  0  0  0
  5 14  1  0  0  0  0
  6 11  1  0  0  0  0
  7  9  1  0  0  0  0
  8 21  1  0  0  0  0
  8 22  1  0  0  0  0
  9 12  1  0  0  0  0
  9 17  1  0  0  0  0
 10 12  1  0  0  0  0
 10 13  1  0  0  0  0
 11 15  1  0  0  0  0
 11 24  2  0  0  0  0
 13 18  1  0  0  0  0
 13 19  1  0  0  0  0
 14 16  1  0  0  0  0
 18 21  1  0  0  0  0
 19 22  1  0  0  0  0
 20 23  2  0  0  0  0
 23 24  1  0  0  0  0
M  END
>  <NScode>
NS-022401846-0000

>  <a_acc>
5

>  <a_don>
1

>  <chiral>
2

>  <opr_nrot>
10

>  <Weight>
339.40698

>  <druglike>
1

>  <lip_druglike>
1

>  <lip_violation>
0

>  <logS>
-2.47791

$$$$
