NS-014081004-0000
  MOE2022           3D

 27 29  0  0  0  0  0  0  0  0999 V2000
   -0.7370    0.8710    0.2260 C   0  0  0  0  0  0  0  0  0  0  0  0
   -1.6930    1.6700   -0.1930 N   0  0  0  0  0  0  0  0  0  0  0  0
   -1.4770    2.9900   -0.4190 N   0  0  0  0  0  0  0  0  0  0  0  0
   -0.2300    3.6030   -0.2450 C   0  0  0  0  0  0  0  0  0  0  0  0
    3.4260   -5.8670    1.3070 N   0  3  0  0  0  0  0  0  0  0  0  0
    0.5850    1.4100    0.5340 C   0  0  0  0  0  0  0  0  0  0  0  0
    0.8400    2.7700    0.2600 C   0  0  0  0  0  0  0  0  0  0  0  0
   -1.0400   -0.5540    0.3480 C   0  0  0  0  0  0  0  0  0  0  0  0
    2.7100   -5.1140    0.2820 C   0  0  0  0  0  0  0  0  0  0  0  0
    4.2930   -6.6670    0.9970 O   0  5  0  0  0  0  0  0  0  0  0  0
    3.1650   -5.7010    2.4880 O   0  0  0  0  0  0  0  0  0  0  0  0
   -0.1190    4.8010   -0.5180 O   0  0  0  0  0  0  0  0  0  0  0  0
   -0.0950   -1.4590   -0.0230 O   0  0  0  0  0  0  0  0  0  0  0  0
   -2.1050   -1.0260    0.7420 O   0  0  0  0  0  0  0  0  0  0  0  0
    1.5610   -4.4010    0.6410 C   0  0  0  0  0  0  0  0  0  0  0  0
   -2.6430    3.7690   -0.8470 C   0  0  0  0  0  0  0  0  0  0  0  0
   -0.3590   -2.8830    0.0120 C   0  0  0  0  0  0  0  0  0  0  0  0
    0.8820   -3.6770   -0.3380 C   0  0  0  0  0  0  0  0  0  0  0  0
    1.6240    0.6500    1.1210 C   0  0  0  0  0  0  0  0  0  0  0  0
    2.1140    3.3130    0.4980 C   0  0  0  0  0  0  0  0  0  0  0  0
    3.1930   -5.1230   -1.0300 C   0  0  0  0  0  0  0  0  0  0  0  0
    2.5080   -4.3950   -1.9970 C   0  0  0  0  0  0  0  0  0  0  0  0
    1.3620   -3.6770   -1.6510 C   0  0  0  0  0  0  0  0  0  0  0  0
   -3.4360    4.3600    0.3280 C   0  0  0  0  0  0  0  0  0  0  0  0
    2.8710    1.2040    1.3600 C   0  0  0  0  0  0  0  0  0  0  0  0
    3.1230    2.5370    1.0400 C   0  0  0  0  0  0  0  0  0  0  0  0
   -4.6800    5.1410   -0.1150 C   0  0  0  0  0  0  0  0  0  0  0  0
  1  2  2  0  0  0  0
  1  6  1  0  0  0  0
  1  8  1  0  0  0  0
  2  3  1  0  0  0  0
  3  4  1  0  0  0  0
  3 16  1  0  0  0  0
  4  7  1  0  0  0  0
  4 12  2  0  0  0  0
  5  9  1  0  0  0  0
  5 10  1  0  0  0  0
  5 11  2  0  0  0  0
  6  7  2  0  0  0  0
  6 19  1  0  0  0  0
  7 20  1  0  0  0  0
  8 13  1  0  0  0  0
  8 14  2  0  0  0  0
  9 15  2  0  0  0  0
  9 21  1  0  0  0  0
 13 17  1  0  0  0  0
 15 18  1  0  0  0  0
 16 24  1  0  0  0  0
 17 18  1  0  0  0  0
 18 23  2  0  0  0  0
 19 25  2  0  0  0  0
 20 26  2  0  0  0  0
 21 22  2  0  0  0  0
 22 23  1  0  0  0  0
 24 27  1  0  0  0  0
 25 26  1  0  0  0  0
M  CHG  1   5   1
M  CHG  1  10  -1
M  END
>  <NScode>
NS-014081004-0000

>  <a_acc>
3

>  <a_don>
0

>  <chiral>
0

>  <opr_nrot>
6

>  <Weight>
367.36099

>  <druglike>
1

>  <lip_druglike>
1

>  <lip_violation>
0

>  <logS>
-5.58074

$$$$
