NS-020308462-0000
  MOE2022           3D

 17 19  0  0  1  0  0  0  0  0999 V2000
    0.0960    4.8800    0.6730 O   0  0  0  0  0  0  0  0  0  0  0  0
    0.1180    3.7680    0.2060 C   0  0  0  0  0  0  0  0  0  0  0  0
    1.3790    3.0950   -0.2780 C   0  0  0  0  0  0  0  0  0  0  0  0
    1.4190    1.5950   -0.0340 C   0  0  0  0  0  0  0  0  0  0  0  0
    0.3310    0.9280    0.1280 N   0  3  0  0  0  0  0  0  0  0  0  0
    0.3290   -0.5470    0.3180 C   0  0  0  0  0  0  0  0  0  0  0  0
    1.6720   -1.3060    0.3750 C   0  0  0  0  0  0  0  0  0  0  0  0
    1.4620   -2.8100    0.5640 C   0  0  3  0  0  0  0  0  0  0  0  0
    2.7070   -3.6540    0.3200 C   0  0  0  0  0  0  0  0  0  0  0  0
    2.0990   -5.0120   -0.0260 C   0  0  0  0  0  0  0  0  0  0  0  0
    0.6750   -4.6820   -0.4770 C   0  0  0  0  0  0  0  0  0  0  0  0
    0.5630   -3.2680   -0.4160 O   0  0  0  0  0  0  0  0  0  0  0  0
   -0.9540    1.5870    0.1230 C   0  0  0  0  0  0  0  0  0  0  0  0
   -2.2080    1.0800    0.0980 C   0  0  0  0  0  0  0  0  0  0  0  0
   -3.0540    2.1880    0.1290 C   0  0  0  0  0  0  0  0  0  0  0  0
   -2.3730    3.3090    0.1700 N   0  0  0  0  0  0  0  0  0  0  0  0
   -1.0420    2.9450    0.1680 N   0  0  0  0  0  0  0  0  0  0  0  0
  1  2  2  0  0  0  0
  2  3  1  0  0  0  0
  2 17  1  0  0  0  0
  3  4  1  0  0  0  0
  4  5  2  0  0  0  0
  5  6  1  0  0  0  0
  5 13  1  0  0  0  0
  6  7  1  0  0  0  0
  7  8  1  0  0  0  0
  8  9  1  0  0  0  0
  8 12  1  0  0  0  0
  9 10  1  0  0  0  0
 10 11  1  0  0  0  0
 11 12  1  0  0  0  0
 13 14  2  0  0  0  0
 13 17  1  0  0  0  0
 14 15  1  0  0  0  0
 15 16  2  0  0  0  0
 16 17  1  0  0  0  0
M  CHG  1   5   1
M  END
>  <NScode>
NS-020308462-0000

>  <a_acc>
3

>  <a_don>
0

>  <chiral>
1

>  <opr_nrot>
4

>  <Weight>
233.271

>  <druglike>
1

>  <lip_druglike>
1

>  <lip_violation>
0

>  <logS>
-1.65911

$$$$
