NS-013981385-0000
  MOE2022           3D

 24 26  0  0  0  0  0  0  0  0999 V2000
   -1.0720   -1.1530    0.7820 C   0  0  0  0  0  0  0  0  0  0  0  0
   -3.3460    0.0500   -0.2960 N   0  0  0  0  0  0  0  0  0  0  0  0
   -2.1390   -1.9050    0.3140 C   0  0  0  0  0  0  0  0  0  0  0  0
   -3.2750   -1.2480   -0.2210 C   0  0  0  0  0  0  0  0  0  0  0  0
    0.1270   -1.7870    1.3150 C   0  0  0  0  0  0  0  0  0  0  0  0
   -1.1680    0.2700    0.7350 C   0  0  0  0  0  0  0  0  0  0  0  0
   -2.3290    0.8360    0.1670 C   0  0  0  0  0  0  0  0  0  0  0  0
    2.8920   -0.5630   -0.8990 C   0  0  0  0  0  0  0  0  0  0  0  0
    1.3090   -1.6890    0.6640 O   0  0  0  0  0  0  0  0  0  0  0  0
    0.1430   -2.4480    2.3350 O   0  0  0  0  0  0  0  0  0  0  0  0
    3.0560    0.5590   -1.3660 O   0  0  0  0  0  0  0  0  0  0  0  0
    6.2590   -1.9910   -0.4240 C   0  0  0  0  0  0  0  0  0  0  0  0
    1.5080   -1.1460   -0.6890 C   0  0  0  0  0  0  0  0  0  0  0  0
    3.9290   -1.3130   -0.5270 N   0  0  0  0  0  0  0  0  0  0  0  0
    6.9660   -2.1980    0.6960 C   0  0  0  0  0  0  0  0  0  0  0  0
   -2.1190   -3.4300    0.4040 C   0  0  0  0  0  0  0  0  0  0  0  0
   -4.4580   -2.0230   -0.7640 C   0  0  0  0  0  0  0  0  0  0  0  0
   -0.1600    1.1430    1.2310 C   0  0  0  0  0  0  0  0  0  0  0  0
    5.2960   -0.8420   -0.5960 C   0  0  0  0  0  0  0  0  0  0  0  0
   -2.4520    2.2380    0.0700 C   0  0  0  0  0  0  0  0  0  0  0  0
   -3.1660   -4.1370   -0.4680 C   0  0  0  0  0  0  0  0  0  0  0  0
   -4.5340   -3.4750   -0.2770 C   0  0  0  0  0  0  0  0  0  0  0  0
   -0.3020    2.5090    1.1280 C   0  0  0  0  0  0  0  0  0  0  0  0
   -1.4550    3.0630    0.5400 C   0  0  0  0  0  0  0  0  0  0  0  0
  1  3  2  0  0  0  0
  1  5  1  0  0  0  0
  1  6  1  0  0  0  0
  2  4  2  0  0  0  0
  2  7  1  0  0  0  0
  3  4  1  0  0  0  0
  3 16  1  0  0  0  0
  4 17  1  0  0  0  0
  5  9  1  0  0  0  0
  5 10  2  0  0  0  0
  6  7  2  0  0  0  0
  6 18  1  0  0  0  0
  7 20  1  0  0  0  0
  8 11  2  0  0  0  0
  8 13  1  0  0  0  0
  8 14  1  0  0  0  0
  9 13  1  0  0  0  0
 12 15  2  0  0  0  0
 12 19  1  0  0  0  0
 14 19  1  0  0  0  0
 16 21  1  0  0  0  0
 17 22  1  0  0  0  0
 18 23  2  0  0  0  0
 20 24  2  0  0  0  0
 21 22  1  0  0  0  0
 23 24  1  0  0  0  0
M  END
>  <NScode>
NS-013981385-0000

>  <a_acc>
3

>  <a_don>
1

>  <chiral>
0

>  <opr_nrot>
6

>  <Weight>
324.38

>  <druglike>
1

>  <lip_druglike>
1

>  <lip_violation>
0

>  <logS>
-4.1127601

$$$$
