NS-017257008-0000
  MOE2022           3D

 29 32  0  0  1  0  0  0  0  0999 V2000
    4.8420    0.7760   -1.6930 C   0  0  0  0  0  0  0  0  0  0  0  0
    6.3370    1.1480   -1.4920 C   0  0  0  0  0  0  0  0  0  0  0  0
    4.0060    1.5100   -2.4760 N   0  0  0  0  0  0  0  0  0  0  0  0
    6.4220    2.4680   -0.6850 C   0  0  0  0  0  0  0  0  0  0  0  0
    2.6550    3.2460   -0.7200 N   0  3  3  0  0  0  0  0  0  0  0  0
    4.3590   -0.1900   -1.1070 O   0  0  0  0  0  0  0  0  0  0  0  0
    5.8110    2.5280    0.5760 C   0  0  0  0  0  0  0  0  0  0  0  0
    4.1830    2.9550   -2.7770 C   0  0  0  0  0  0  0  0  0  0  0  0
    0.0410    3.8160    1.2850 N   0  0  0  0  0  0  0  0  0  0  0  0
    9.0710    1.1740   -1.5650 O   0  0  0  0  0  0  0  0  0  0  0  0
    2.3340    4.0830    0.5090 C   0  0  0  0  0  0  0  0  0  0  0  0
    3.6960    3.8710   -1.6340 C   0  0  0  0  0  0  0  0  0  0  0  0
    1.3200    3.4820    1.4650 C   0  0  0  0  0  0  0  0  0  0  0  0
    1.5660    1.2510   -1.8450 C   0  0  0  0  0  0  0  0  0  0  0  0
    2.6860    0.9600   -2.8590 C   0  0  0  0  0  0  0  0  0  0  0  0
    5.8730    3.6840    1.3530 C   0  0  0  0  0  0  0  0  0  0  0  0
    7.0480    1.1500   -2.8900 C   0  0  0  0  0  0  0  0  0  0  0  0
    7.0740    0.0500   -0.6750 C   0  0  0  0  0  0  0  0  0  0  0  0
    1.4360    2.7220   -1.4400 C   0  0  0  0  0  0  0  0  0  0  0  0
    7.1010    3.6010   -1.1470 C   0  0  0  0  0  0  0  0  0  0  0  0
    7.1330    4.7670   -0.3910 C   0  0  0  0  0  0  0  0  0  0  0  0
   -0.9000    3.3060    2.0830 C   0  0  0  0  0  0  0  0  0  0  0  0
    8.5780    0.3340   -0.5240 C   0  0  0  0  0  0  0  0  0  0  0  0
    8.5610    0.8730   -2.8500 C   0  0  0  0  0  0  0  0  0  0  0  0
    6.5190    4.8100    0.8540 C   0  0  0  0  0  0  0  0  0  0  0  0
    1.6990    2.5830    2.4610 C   0  0  0  0  0  0  0  0  0  0  0  0
    5.3030    3.7160    2.7550 C   0  0  0  0  0  0  0  0  0  0  0  0
   -0.5840    2.4140    3.1030 C   0  0  0  0  0  0  0  0  0  0  0  0
    0.7360    2.0380    3.2980 C   0  0  0  0  0  0  0  0  0  0  0  0
  1  2  1  0  0  0  0
  1  3  1  0  0  0  0
  1  6  2  0  0  0  0
  2  4  1  0  0  0  0
  2 17  1  0  0  0  0
  2 18  1  0  0  0  0
  3  8  1  0  0  0  0
  3 15  1  0  0  0  0
  4  7  2  0  0  0  0
  4 20  1  0  0  0  0
  5 11  1  0  0  0  0
  5 12  1  0  0  0  0
  5 19  1  0  0  0  0
  7 16  1  0  0  0  0
  8 12  1  0  0  0  0
  9 13  2  0  0  0  0
  9 22  1  0  0  0  0
 10 23  1  0  0  0  0
 10 24  1  0  0  0  0
 11 13  1  0  0  0  0
 13 26  1  0  0  0  0
 14 15  1  0  0  0  0
 14 19  1  0  0  0  0
 16 25  2  0  0  0  0
 16 27  1  0  0  0  0
 17 24  1  0  0  0  0
 18 23  1  0  0  0  0
 20 21  2  0  0  0  0
 21 25  1  0  0  0  0
 22 28  2  0  0  0  0
 26 29  2  0  0  0  0
 28 29  1  0  0  0  0
M  CHG  1   5   1
M  END
>  <NScode>
NS-017257008-0000

>  <a_acc>
4

>  <a_don>
0

>  <chiral>
0

>  <opr_nrot>
9

>  <Weight>
393.53101

>  <druglike>
1

>  <lip_druglike>
1

>  <lip_violation>
0

>  <logS>
-3.3157301

$$$$
