NS-025078594-0000
  MOE2022           3D

 16 18  0  0  1  0  0  0  0  0999 V2000
    3.3510    1.3140   -1.9640 O   0  0  0  0  0  0  0  0  0  0  0  0
    3.7590    1.4160   -0.8100 C   0  0  0  0  0  0  0  0  0  0  0  0
    3.2630    0.4250    0.2330 C   0  0  0  0  0  0  0  0  0  0  0  0
    4.2450   -0.6770    0.6790 C   0  0  0  0  0  0  0  0  0  0  0  0
    4.7700   -1.6640   -0.3290 C   0  0  0  0  0  0  0  0  0  0  0  0
    3.7960   -2.1140    0.7150 C   0  0  0  0  0  0  0  0  0  0  0  0
    4.5400    2.4650   -0.4760 N   0  0  0  0  0  0  0  0  0  0  0  0
    4.4220    3.7270   -1.2000 C   0  0  0  0  0  0  0  0  0  0  0  0
    4.1880    4.7840   -0.1190 C   0  0  0  0  0  0  0  0  0  0  0  0
    4.8220    4.1750    1.1380 C   0  0  0  0  0  0  0  0  0  0  0  0
    5.1810    2.7190    0.8160 C   0  0  3  0  0  0  0  0  0  0  0  0
    6.7230    2.4790    0.8360 C   0  0  0  0  0  0  0  0  0  0  0  0
    7.5570    3.2180   -0.2190 C   0  0  0  0  0  0  0  0  0  0  0  0
    8.9420    2.5980   -0.0490 C   0  0  0  0  0  0  0  0  0  0  0  0
    8.6630    1.1210    0.2410 C   0  0  0  0  0  0  0  0  0  0  0  0
    7.1770    1.0340    0.6080 C   0  0  0  0  0  0  0  0  0  0  0  0
  1  2  2  0  0  0  0
  2  3  1  0  0  0  0
  2  7  1  0  0  0  0
  3  4  1  0  0  0  0
  4  5  1  0  0  0  0
  4  6  1  0  0  0  0
  5  6  1  0  0  0  0
  7  8  1  0  0  0  0
  7 11  1  0  0  0  0
  8  9  1  0  0  0  0
  9 10  1  0  0  0  0
 10 11  1  0  0  0  0
 11 12  1  0  0  0  0
 12 13  1  0  0  0  0
 12 16  1  0  0  0  0
 13 14  1  0  0  0  0
 14 15  1  0  0  0  0
 15 16  1  0  0  0  0
M  END
>  <NScode>
NS-025078594-0000

>  <a_acc>
1

>  <a_don>
0

>  <chiral>
1

>  <opr_nrot>
5

>  <Weight>
221.34399

>  <druglike>
1

>  <lip_druglike>
1

>  <lip_violation>
0

>  <logS>
-3.00618

$$$$
