NS-020163780-0000
  MOE2022           3D

 26 28  0  0  1  0  0  0  0  0999 V2000
    2.2230   -1.8180   -0.2030 S   0  0  0  0  0  0  0  0  0  0  0  0
    1.3220   -1.0120    0.9300 N   0  0  0  0  0  0  0  0  0  0  0  0
    0.5280    2.5770    0.7890 C   0  0  0  0  0  0  0  0  0  0  0  0
    1.0780    1.3620    1.1910 C   0  0  0  0  0  0  0  0  0  0  0  0
    3.1910   -0.9170   -0.7100 O   0  0  0  0  0  0  0  0  0  0  0  0
    1.3550   -2.4210   -1.1450 O   0  0  0  0  0  0  0  0  0  0  0  0
    3.0480   -3.1100    0.7130 C   0  0  0  0  0  0  0  0  0  0  0  0
   -0.3590    2.6090   -0.3040 C   0  0  0  0  0  0  0  0  0  0  0  0
    0.7600    0.1960    0.4940 C   0  0  0  0  0  0  0  0  0  0  0  0
   -0.9520    3.7800   -0.7470 O   0  0  0  0  0  0  0  0  0  0  0  0
   -3.8050    5.9120   -0.3500 N   0  0  0  0  0  0  0  0  0  0  0  0
    5.1040   -6.2440    0.0990 O   0  0  0  0  0  0  0  0  0  0  0  0
   -0.6670    1.4440   -0.9990 C   0  0  0  0  0  0  0  0  0  0  0  0
    3.8740   -4.1470   -0.0840 C   0  0  3  0  0  0  0  0  0  0  0  0
   -3.2250    4.7070   -0.3570 C   0  0  0  0  0  0  0  0  0  0  0  0
    0.9790    4.0150    1.6480 Cl  0  0  0  0  0  0  0  0  0  0  0  0
   -1.7910    4.6060    0.1210 C   0  0  0  0  0  0  0  0  0  0  0  0
   -0.1150    0.2310   -0.5980 C   0  0  0  0  0  0  0  0  0  0  0  0
    4.3610   -5.2840    0.8350 C   0  0  0  0  0  0  0  0  0  0  0  0
   -5.0680    6.0450   -0.7520 C   0  0  0  0  0  0  0  0  0  0  0  0
    6.2810   -5.7160   -0.4960 C   0  0  0  0  0  0  0  0  0  0  0  0
    5.0790   -3.5190   -0.8110 C   0  0  0  0  0  0  0  0  0  0  0  0
   -3.9260    3.5750   -0.7710 C   0  0  0  0  0  0  0  0  0  0  0  0
    5.9060   -4.6170   -1.4950 C   0  0  0  0  0  0  0  0  0  0  0  0
   -5.8190    4.9540   -1.1790 C   0  0  0  0  0  0  0  0  0  0  0  0
   -5.2430    3.6920   -1.1910 C   0  0  0  0  0  0  0  0  0  0  0  0
  1  2  1  0  0  0  0
  1  5  2  0  0  0  0
  1  6  2  0  0  0  0
  1  7  1  0  0  0  0
  2  9  1  0  0  0  0
  3  4  2  0  0  0  0
  3  8  1  0  0  0  0
  3 16  1  0  0  0  0
  4  9  1  0  0  0  0
  7 14  1  0  0  0  0
  8 10  1  0  0  0  0
  8 13  2  0  0  0  0
  9 18  2  0  0  0  0
 10 17  1  0  0  0  0
 11 15  2  0  0  0  0
 11 20  1  0  0  0  0
 12 19  1  0  0  0  0
 12 21  1  0  0  0  0
 13 18  1  0  0  0  0
 14 19  1  0  0  0  0
 14 22  1  0  0  0  0
 15 17  1  0  0  0  0
 15 23  1  0  0  0  0
 20 25  2  0  0  0  0
 21 24  1  0  0  0  0
 22 24  1  0  0  0  0
 23 26  2  0  0  0  0
 25 26  1  0  0  0  0
M  END
>  <NScode>
NS-020163780-0000

>  <a_acc>
5

>  <a_don>
1

>  <chiral>
1

>  <opr_nrot>
8

>  <Weight>
396.89499

>  <druglike>
1

>  <lip_druglike>
1

>  <lip_violation>
0

>  <logS>
-3.44156

$$$$
