NS-022337227-0000
  MOE2022           3D

 22 24  0  0  1  0  0  0  0  0999 V2000
    5.0450    0.8520    0.4540 N   0  3  3  0  0  0  0  0  0  0  0  0
    4.9170    2.2920   -0.0320 C   0  0  0  0  0  0  0  0  0  0  0  0
    4.0860    3.1600    0.9250 C   0  0  1  0  0  0  0  0  0  0  0  0
    2.6510    2.5880    1.0450 C   0  0  1  0  0  0  0  0  0  0  0  0
    3.6740    0.2400    0.6610 C   0  0  0  0  0  0  0  0  0  0  0  0
    6.0300   -0.0040   -0.3160 C   0  0  0  0  0  0  0  0  0  0  0  0
    1.8360    2.7260   -0.2600 C   0  0  0  0  0  0  0  0  0  0  0  0
    2.7230    1.1100    1.5020 C   0  0  0  0  0  0  0  0  0  0  0  0
    1.8860    4.1220   -0.8470 C   0  0  0  0  0  0  0  0  0  0  0  0
    2.0070    6.6820   -1.8830 C   0  0  0  0  0  0  0  0  0  0  0  0
    4.7350    3.1140    2.1960 O   0  0  0  0  0  0  0  0  0  0  0  0
    2.0730    7.9350   -2.3870 F   0  0  0  0  0  0  0  0  0  0  0  0
    2.5320    4.3550   -2.0650 C   0  0  0  0  0  0  0  0  0  0  0  0
    1.2910    5.1860   -0.1600 C   0  0  0  0  0  0  0  0  0  0  0  0
    1.3520    6.4770   -0.6770 C   0  0  0  0  0  0  0  0  0  0  0  0
    2.5970    5.6440   -2.5890 C   0  0  0  0  0  0  0  0  0  0  0  0
    6.1400   -1.4380    0.2370 C   0  0  0  0  0  0  0  0  0  0  0  0
    7.4340    0.6270   -0.4010 C   0  0  0  0  0  0  0  0  0  0  0  0
    4.4190    4.1970    3.0670 C   0  0  0  0  0  0  0  0  0  0  0  0
    7.1420   -2.3100   -0.5340 C   0  0  0  0  0  0  0  0  0  0  0  0
    8.4410   -0.2400   -1.1730 C   0  0  0  0  0  0  0  0  0  0  0  0
    8.5250   -1.6480   -0.5690 C   0  0  0  0  0  0  0  0  0  0  0  0
  1  2  1  0  0  0  0
  1  5  1  0  0  0  0
  1  6  1  0  0  0  0
  2  3  1  0  0  0  0
  3  4  1  0  0  0  0
  3 11  1  0  0  0  0
  4  7  1  0  0  0  0
  4  8  1  0  0  0  0
  5  8  1  0  0  0  0
  6 17  1  0  0  0  0
  6 18  1  0  0  0  0
  7  9  1  0  0  0  0
  9 13  1  0  0  0  0
  9 14  2  0  0  0  0
 10 12  1  0  0  0  0
 10 15  2  0  0  0  0
 10 16  1  0  0  0  0
 11 19  1  0  0  0  0
 13 16  2  0  0  0  0
 14 15  1  0  0  0  0
 17 20  1  0  0  0  0
 18 21  1  0  0  0  0
 20 22  1  0  0  0  0
 21 22  1  0  0  0  0
M  CHG  1   1   1
M  END
>  <NScode>
NS-022337227-0000

>  <a_acc>
2

>  <a_don>
0

>  <chiral>
2

>  <opr_nrot>
8

>  <Weight>
305.43698

>  <druglike>
1

>  <lip_druglike>
1

>  <lip_violation>
0

>  <logS>
-3.6535001

$$$$
