NS-015070680-0000
  MOE2022           3D

 30 33  0  0  0  0  0  0  0  0999 V2000
   -2.8180    1.7610   -1.2440 C   0  0  0  0  0  0  0  0  0  0  0  0
   -2.8520    3.0150   -0.6800 C   0  0  0  0  0  0  0  0  0  0  0  0
   -0.4210    2.0390   -1.3830 N   0  0  0  0  0  0  0  0  0  0  0  0
   -1.5390    1.2190   -1.6430 C   0  0  0  0  0  0  0  0  0  0  0  0
   -0.5090    3.2970   -0.8150 N   0  0  0  0  0  0  0  0  0  0  0  0
   -1.6680    3.8070   -0.4770 C   0  0  0  0  0  0  0  0  0  0  0  0
   -4.0510    1.1430   -1.3460 N   0  0  0  0  0  0  0  0  0  0  0  0
   -4.4630    3.4170   -0.2480 S   0  0  0  0  0  0  0  0  0  0  0  0
    0.9370    1.5490   -1.6950 C   0  0  0  0  0  0  0  0  0  0  0  0
   -4.9890    1.8950   -0.8650 C   0  0  0  0  0  0  0  0  0  0  0  0
    1.5070    0.5500   -0.7030 C   0  0  0  0  0  0  0  0  0  0  0  0
    0.9230   -0.6930   -0.6650 N   0  0  0  0  0  0  0  0  0  0  0  0
    1.2580   -1.8250    0.1340 C   0  0  0  0  0  0  0  0  0  0  0  0
   -1.7100    5.1500    0.0970 C   0  0  0  0  0  0  0  0  0  0  0  0
    0.8820   -3.0930   -0.3350 C   0  0  0  0  0  0  0  0  0  0  0  0
   -1.3200    0.1110   -2.1710 O   0  0  0  0  0  0  0  0  0  0  0  0
    1.1550   -4.2500    0.3790 C   0  0  0  0  0  0  0  0  0  0  0  0
    2.4400    0.8200    0.0260 O   0  0  0  0  0  0  0  0  0  0  0  0
    1.9160   -1.7170    1.3690 C   0  0  0  0  0  0  0  0  0  0  0  0
   -2.6020    6.1250   -0.3740 C   0  0  0  0  0  0  0  0  0  0  0  0
   -0.8340    5.5040    1.1340 C   0  0  0  0  0  0  0  0  0  0  0  0
    1.8170   -4.1130    1.5920 C   0  0  0  0  0  0  0  0  0  0  0  0
    0.2340   -3.2070   -1.5180 F   0  0  0  0  0  0  0  0  0  0  0  0
    2.2000   -2.8730    2.0980 C   0  0  0  0  0  0  0  0  0  0  0  0
   -0.8580    6.7800    1.6860 C   0  0  0  0  0  0  0  0  0  0  0  0
   -2.6250    7.4000    0.1800 C   0  0  0  0  0  0  0  0  0  0  0  0
    2.0960   -5.2190    2.3060 F   0  0  0  0  0  0  0  0  0  0  0  0
   -1.7510    7.7360    1.2110 C   0  0  0  0  0  0  0  0  0  0  0  0
   -6.4450    1.5120   -0.8180 C   0  0  0  0  0  0  0  0  0  0  0  0
   -1.7810    9.1230    1.8150 C   0  0  0  0  0  0  0  0  0  0  0  0
  1  2  2  0  0  0  0
  1  4  1  0  0  0  0
  1  7  1  0  0  0  0
  2  6  1  0  0  0  0
  2  8  1  0  0  0  0
  3  4  1  0  0  0  0
  3  5  1  0  0  0  0
  3  9  1  0  0  0  0
  4 16  2  0  0  0  0
  5  6  2  0  0  0  0
  6 14  1  0  0  0  0
  7 10  2  0  0  0  0
  8 10  1  0  0  0  0
  9 11  1  0  0  0  0
 10 29  1  0  0  0  0
 11 12  1  0  0  0  0
 11 18  2  0  0  0  0
 12 13  1  0  0  0  0
 13 15  2  0  0  0  0
 13 19  1  0  0  0  0
 14 20  1  0  0  0  0
 14 21  2  0  0  0  0
 15 17  1  0  0  0  0
 15 23  1  0  0  0  0
 17 22  2  0  0  0  0
 19 24  2  0  0  0  0
 20 26  2  0  0  0  0
 21 25  1  0  0  0  0
 22 24  1  0  0  0  0
 22 27  1  0  0  0  0
 25 28  2  0  0  0  0
 26 28  1  0  0  0  0
 28 30  1  0  0  0  0
M  END
>  <NScode>
NS-015070680-0000

>  <a_acc>
4

>  <a_don>
1

>  <chiral>
0

>  <opr_nrot>
4

>  <Weight>
426.44699

>  <druglike>
1

>  <lip_druglike>
1

>  <lip_violation>
0

>  <logS>
-6.08143

$$$$
