NS-012901479-0000
  MOE2022           3D

 23 25  0  0  0  0  0  0  0  0999 V2000
   -5.0390   -2.1060   -0.0470 C   0  0  0  0  0  0  0  0  0  0  0  0
   -6.2290   -2.0530   -0.6380 N   0  0  0  0  0  0  0  0  0  0  0  0
   -5.1420   -2.8070    1.0340 N   0  0  0  0  0  0  0  0  0  0  0  0
   -6.4490   -3.1900    1.0920 N   0  0  0  0  0  0  0  0  0  0  0  0
   -7.1170   -2.7320    0.0740 N   0  0  0  0  0  0  0  0  0  0  0  0
    4.2960    2.4760   -0.2280 C   0  0  0  0  0  0  0  0  0  0  0  0
    4.7230    2.7240   -1.4180 N   0  0  0  0  0  0  0  0  0  0  0  0
    5.0410    3.1470    0.7320 C   0  0  0  0  0  0  0  0  0  0  0  0
    3.1790    1.6720    0.0700 N   0  0  0  0  0  0  0  0  0  0  0  0
    2.8300    0.5090   -0.5740 C   0  0  0  0  0  0  0  0  0  0  0  0
    5.7750    3.5590   -1.2620 O   0  0  0  0  0  0  0  0  0  0  0  0
   -3.6260   -1.3180   -0.7060 S   0  0  0  0  0  0  0  0  0  0  0  0
    5.9720    3.8210    0.0410 C   0  0  0  0  0  0  0  0  0  0  0  0
    1.5030   -0.0530   -0.3020 C   0  0  0  0  0  0  0  0  0  0  0  0
    3.6520   -0.0400   -1.2940 O   0  0  0  0  0  0  0  0  0  0  0  0
    1.2980   -1.4360   -0.4020 C   0  0  0  0  0  0  0  0  0  0  0  0
    0.4160    0.7600    0.0560 C   0  0  0  0  0  0  0  0  0  0  0  0
   -2.3750   -1.7770    0.5390 C   0  0  0  0  0  0  0  0  0  0  0  0
   -6.5570   -1.3670   -1.8740 C   0  0  0  0  0  0  0  0  0  0  0  0
   -1.0150   -1.1770    0.2430 C   0  0  0  0  0  0  0  0  0  0  0  0
   -0.8270    0.2010    0.3300 C   0  0  0  0  0  0  0  0  0  0  0  0
    0.0530   -1.9920   -0.1300 C   0  0  0  0  0  0  0  0  0  0  0  0
    7.0890    4.7300    0.4890 C   0  0  0  0  0  0  0  0  0  0  0  0
  1  2  1  0  0  0  0
  1  3  2  0  0  0  0
  1 12  1  0  0  0  0
  2  5  1  0  0  0  0
  2 19  1  0  0  0  0
  3  4  1  0  0  0  0
  4  5  2  0  0  0  0
  6  7  2  0  0  0  0
  6  8  1  0  0  0  0
  6  9  1  0  0  0  0
  7 11  1  0  0  0  0
  8 13  2  0  0  0  0
  9 10  1  0  0  0  0
 10 14  1  0  0  0  0
 10 15  2  0  0  0  0
 11 13  1  0  0  0  0
 12 18  1  0  0  0  0
 13 23  1  0  0  0  0
 14 16  1  0  0  0  0
 14 17  2  0  0  0  0
 16 22  2  0  0  0  0
 17 21  1  0  0  0  0
 18 20  1  0  0  0  0
 20 21  2  0  0  0  0
 20 22  1  0  0  0  0
M  END
>  <NScode>
NS-012901479-0000

>  <a_acc>
5

>  <a_don>
1

>  <chiral>
0

>  <opr_nrot>
5

>  <Weight>
330.37201

>  <druglike>
1

>  <lip_druglike>
1

>  <lip_violation>
0

>  <logS>
-3.8615

$$$$
