NS-022309397-0000
  MOE2022           3D

 24 26  0  0  1  0  0  0  0  0999 V2000
   -0.2110    7.0030   -0.0140 C   0  0  0  0  0  0  0  0  0  0  0  0
   -0.3500    5.5990    0.4160 N   0  0  0  0  0  0  0  0  0  0  0  0
   -1.4300    5.3080    1.3750 C   0  0  0  0  0  0  0  0  0  0  0  0
    0.3220    4.6360   -0.2900 C   0  0  0  0  0  0  0  0  0  0  0  0
    1.0390    4.9060   -1.3380 N   0  0  0  0  0  0  0  0  0  0  0  0
    1.6660    3.8770   -1.9810 C   0  0  0  0  0  0  0  0  0  0  0  0
    2.3550    4.1080   -2.9830 O   0  0  0  0  0  0  0  0  0  0  0  0
    1.5270    2.5380   -1.5020 C   0  0  0  0  0  0  0  0  0  0  0  0
    0.7750    2.2840   -0.4000 C   0  0  0  0  0  0  0  0  0  0  0  0
    0.1820    3.3730    0.1990 N   0  0  0  0  0  0  0  0  0  0  0  0
    0.5320    0.9260    0.2330 C   0  0  3  0  0  0  0  0  0  0  0  0
    1.7890    0.2370    0.7530 C   0  0  0  0  0  0  0  0  0  0  0  0
    1.4220   -1.2430    0.7450 C   0  0  0  0  0  0  0  0  0  0  0  0
    0.4470   -1.4330   -0.3450 N   0  0  0  0  0  0  0  0  0  0  0  0
   -0.0830   -0.1070   -0.7160 C   0  0  0  0  0  0  0  0  0  0  0  0
   -0.3720   -2.5780   -0.3950 C   0  0  0  0  0  0  0  0  0  0  0  0
   -0.2680   -3.4000    0.6560 N   0  0  0  0  0  0  0  0  0  0  0  0
   -1.0140   -4.5060    0.7090 C   0  0  0  0  0  0  0  0  0  0  0  0
   -1.9120   -4.8490   -0.2990 C   0  0  0  0  0  0  0  0  0  0  0  0
   -2.6950   -6.0470   -0.1830 C   0  0  0  0  0  0  0  0  0  0  0  0
   -3.3180   -6.9990   -0.0880 N   0  0  0  0  0  0  0  0  0  0  0  0
   -2.0300   -4.0150   -1.4130 C   0  0  0  0  0  0  0  0  0  0  0  0
   -1.2500   -2.8710   -1.4770 C   0  0  0  0  0  0  0  0  0  0  0  0
   -1.3770   -1.8920   -2.9070 Cl  0  0  0  0  0  0  0  0  0  0  0  0
  1  2  1  0  0  0  0
  2  3  1  0  0  0  0
  2  4  1  0  0  0  0
  4  5  2  0  0  0  0
  4 10  1  0  0  0  0
  5  6  1  0  0  0  0
  6  7  2  0  0  0  0
  6  8  1  0  0  0  0
  8  9  2  0  0  0  0
  9 10  1  0  0  0  0
  9 11  1  0  0  0  0
 11 12  1  0  0  0  0
 11 15  1  0  0  0  0
 12 13  1  0  0  0  0
 13 14  1  0  0  0  0
 14 15  1  0  0  0  0
 14 16  1  0  0  0  0
 16 17  1  0  0  0  0
 16 23  2  0  0  0  0
 17 18  2  0  0  0  0
 18 19  1  0  0  0  0
 19 20  1  0  0  0  0
 19 22  2  0  0  0  0
 20 21  3  0  0  0  0
 22 23  1  0  0  0  0
 23 24  1  0  0  0  0
M  END
>  <NScode>
NS-022309397-0000

>  <a_acc>
4

>  <a_don>
1

>  <chiral>
1

>  <opr_nrot>
5

>  <Weight>
344.806

>  <druglike>
1

>  <lip_druglike>
1

>  <lip_violation>
0

>  <logS>
-3.0394101

$$$$
