NS-012608477-0000
  MOE2022           3D

 30 33  0  0  0  0  0  0  0  0999 V2000
   -6.0610    2.2560    0.2170 S   0  0  0  0  0  0  0  0  0  0  0  0
   -1.4530   -1.5380   -1.0080 C   0  0  0  0  0  0  0  0  0  0  0  0
   -2.2590   -2.6100   -1.2550 C   0  0  0  0  0  0  0  0  0  0  0  0
   -4.5980    2.1520    0.9920 N   0  0  0  0  0  0  0  0  0  0  0  0
   -1.8460   -3.9480   -0.8800 C   0  0  0  0  0  0  0  0  0  0  0  0
   -0.2500   -1.7340   -0.3900 O   0  0  0  0  0  0  0  0  0  0  0  0
    0.1940   -2.9610   -0.0110 C   0  0  0  0  0  0  0  0  0  0  0  0
   -0.5700   -4.0620   -0.2430 C   0  0  0  0  0  0  0  0  0  0  0  0
    2.4640   -3.9660    0.0760 N   0  0  0  0  0  0  0  0  0  0  0  0
   -1.7450   -0.0880   -1.3310 C   0  0  0  0  0  0  0  0  0  0  0  0
   -2.2710    0.6860   -0.1850 N   0  0  0  0  0  0  0  0  0  0  0  0
   -4.1500    0.8550    1.5300 C   0  0  0  0  0  0  0  0  0  0  0  0
   -3.4430    2.8600    0.4110 C   0  0  0  0  0  0  0  0  0  0  0  0
   -6.2330    3.4750   -0.4920 O   0  0  0  0  0  0  0  0  0  0  0  0
   -5.7080    1.4100   -0.8710 O   0  0  0  0  0  0  0  0  0  0  0  0
    4.8060   -4.9090    0.2590 C   0  0  0  0  0  0  0  0  0  0  0  0
    3.6950   -4.0850    0.8970 C   0  0  0  0  0  0  0  0  0  0  0  0
    1.5540   -2.9570    0.6520 C   0  0  0  0  0  0  0  0  0  0  0  0
   -2.5380   -4.9500   -1.0750 O   0  0  0  0  0  0  0  0  0  0  0  0
    4.7870   -5.2150   -1.1050 C   0  0  0  0  0  0  0  0  0  0  0  0
   -3.4150   -0.0120    0.4800 C   0  0  0  0  0  0  0  0  0  0  0  0
   -2.7080    2.0310   -0.6640 C   0  0  0  0  0  0  0  0  0  0  0  0
   -3.5040   -2.4220   -1.8650 O   0  0  0  0  0  0  0  0  0  0  0  0
    2.8270   -3.6290   -1.3130 C   0  0  0  0  0  0  0  0  0  0  0  0
    3.6200   -4.7700   -1.9600 C   0  0  0  0  0  0  0  0  0  0  0  0
   -6.5800    3.2070    1.6240 C   0  0  0  0  0  0  0  0  0  0  0  0
    5.8750   -5.3410    1.0440 C   0  0  0  0  0  0  0  0  0  0  0  0
    5.8270   -5.9530   -1.6670 C   0  0  0  0  0  0  0  0  0  0  0  0
    6.9130   -6.0740    0.4780 C   0  0  0  0  0  0  0  0  0  0  0  0
    6.8890   -6.3800   -0.8780 C   0  0  0  0  0  0  0  0  0  0  0  0
  1  4  1  0  0  0  0
  1 14  2  0  0  0  0
  1 15  2  0  0  0  0
  1 26  1  0  0  0  0
  2  3  2  0  0  0  0
  2  6  1  0  0  0  0
  2 10  1  0  0  0  0
  3  5  1  0  0  0  0
  3 23  1  0  0  0  0
  4 12  1  0  0  0  0
  4 13  1  0  0  0  0
  5  8  1  0  0  0  0
  5 19  2  0  0  0  0
  6  7  1  0  0  0  0
  7  8  2  0  0  0  0
  7 18  1  0  0  0  0
  9 17  1  0  0  0  0
  9 18  1  0  0  0  0
  9 24  1  0  0  0  0
 10 11  1  0  0  0  0
 11 21  1  0  0  0  0
 11 22  1  0  0  0  0
 12 21  1  0  0  0  0
 13 22  1  0  0  0  0
 16 17  1  0  0  0  0
 16 20  2  0  0  0  0
 16 27  1  0  0  0  0
 20 25  1  0  0  0  0
 20 28  1  0  0  0  0
 24 25  1  0  0  0  0
 27 29  2  0  0  0  0
 28 30  2  0  0  0  0
 29 30  1  0  0  0  0
M  END
>  <NScode>
NS-012608477-0000

>  <a_acc>
6

>  <a_don>
1

>  <chiral>
0

>  <opr_nrot>
7

>  <Weight>
433.52899

>  <druglike>
1

>  <lip_druglike>
1

>  <lip_violation>
0

>  <logS>
-3.0090499

$$$$
