NS-021804788-0000
  MOE2022           3D

 16 17  0  0  1  0  0  0  0  0999 V2000
   -2.9620    2.7560   -0.8360 C   0  0  0  0  0  0  0  0  0  0  0  0
   -2.3010    1.7110    0.0940 C   0  0  3  0  0  0  0  0  0  0  0  0
   -2.3840    2.1000    1.5150 C   0  0  0  0  0  0  0  0  0  0  0  0
   -2.4610    2.3730    2.6140 N   0  0  0  0  0  0  0  0  0  0  0  0
   -0.8590    1.3850   -0.2720 C   0  0  0  0  0  0  0  0  0  0  0  0
   -0.1630    2.2150   -0.8220 O   0  0  0  0  0  0  0  0  0  0  0  0
   -0.3160    0.1420    0.0550 N   0  0  0  0  0  0  0  0  0  0  0  0
   -1.0040   -0.8770    0.8820 C   0  0  0  0  0  0  0  0  0  0  0  0
   -0.0140   -2.0270    1.1110 C   0  0  0  0  0  0  0  0  0  0  0  0
    1.1810   -1.5880    0.3210 C   0  0  0  0  0  0  0  0  0  0  0  0
    0.9820   -0.3510   -0.2680 C   0  0  0  0  0  0  0  0  0  0  0  0
    1.9770    0.2390   -1.0600 C   0  0  0  0  0  0  0  0  0  0  0  0
    3.1870   -0.4340   -1.2480 C   0  0  0  0  0  0  0  0  0  0  0  0
    3.4000   -1.6810   -0.6540 C   0  0  0  0  0  0  0  0  0  0  0  0
    2.3890   -2.2380    0.1220 C   0  0  0  0  0  0  0  0  0  0  0  0
    2.5930   -3.4480    0.6950 F   0  0  0  0  0  0  0  0  0  0  0  0
  1  2  1  0  0  0  0
  2  3  1  0  0  0  0
  2  5  1  0  0  0  0
  3  4  3  0  0  0  0
  5  6  2  0  0  0  0
  5  7  1  0  0  0  0
  7  8  1  0  0  0  0
  7 11  1  0  0  0  0
  8  9  1  0  0  0  0
  9 10  1  0  0  0  0
 10 11  1  0  0  0  0
 10 15  2  0  0  0  0
 11 12  2  0  0  0  0
 12 13  1  0  0  0  0
 13 14  2  0  0  0  0
 14 15  1  0  0  0  0
 15 16  1  0  0  0  0
M  END
>  <NScode>
NS-021804788-0000

>  <a_acc>
2

>  <a_don>
0

>  <chiral>
1

>  <opr_nrot>
2

>  <Weight>
218.23099

>  <druglike>
1

>  <lip_druglike>
1

>  <lip_violation>
0

>  <logS>
-2.4208901

$$$$
