NS-021945200-0000
  MOE2022           3D

 23 24  0  0  0  0  0  0  0  0999 V2000
   -2.4440    1.5870    1.6460 C   0  0  0  0  0  0  0  0  0  0  0  0
   -1.5640    1.9940    0.5340 N   0  0  0  0  0  0  0  0  0  0  0  0
   -1.6690    3.4090    0.1260 C   0  0  0  0  0  0  0  0  0  0  0  0
   -2.4270    3.6020   -1.2030 C   0  0  0  0  0  0  0  0  0  0  0  0
   -2.6150    5.0930   -1.5480 C   0  0  0  0  0  0  0  0  0  0  0  0
   -1.3000    5.8890   -1.4900 C   0  0  0  0  0  0  0  0  0  0  0  0
   -1.5640    7.2030   -1.6260 F   0  0  0  0  0  0  0  0  0  0  0  0
   -0.5370    5.5870   -2.5600 F   0  0  0  0  0  0  0  0  0  0  0  0
   -0.4980    5.6580   -0.1970 C   0  0  0  0  0  0  0  0  0  0  0  0
   -0.3220    4.1620    0.1350 C   0  0  0  0  0  0  0  0  0  0  0  0
   -0.7120    1.0700   -0.0980 C   0  0  0  0  0  0  0  0  0  0  0  0
   -0.2550    1.4030   -1.1900 O   0  0  0  0  0  0  0  0  0  0  0  0
   -0.3750   -0.2440    0.4850 C   0  0  0  0  0  0  0  0  0  0  0  0
    0.2320   -1.2820   -0.2240 C   0  0  0  0  0  0  0  0  0  0  0  0
    0.3920   -2.2920    0.6410 C   0  0  0  0  0  0  0  0  0  0  0  0
    0.9890   -3.6690    0.4850 C   0  0  0  0  0  0  0  0  0  0  0  0
    1.3490   -3.9390   -0.9060 O   0  0  0  0  0  0  0  0  0  0  0  0
    2.1090   -5.1230   -1.2380 C   0  0  0  0  0  0  0  0  0  0  0  0
    1.4090   -6.3760   -0.7020 C   0  0  0  0  0  0  0  0  0  0  0  0
    2.1520   -5.1840   -2.7640 C   0  0  0  0  0  0  0  0  0  0  0  0
    3.5340   -4.9880   -0.6940 C   0  0  0  0  0  0  0  0  0  0  0  0
   -0.0920   -1.8870    1.8160 O   0  0  0  0  0  0  0  0  0  0  0  0
   -0.5540   -0.6440    1.7220 N   0  0  0  0  0  0  0  0  0  0  0  0
  1  2  1  0  0  0  0
  2  3  1  0  0  0  0
  2 11  1  0  0  0  0
  3  4  1  0  0  0  0
  3 10  1  0  0  0  0
  4  5  1  0  0  0  0
  5  6  1  0  0  0  0
  6  7  1  0  0  0  0
  6  8  1  0  0  0  0
  6  9  1  0  0  0  0
  9 10  1  0  0  0  0
 11 12  2  0  0  0  0
 11 13  1  0  0  0  0
 13 14  1  0  0  0  0
 13 23  2  0  0  0  0
 14 15  2  0  0  0  0
 15 16  1  0  0  0  0
 15 22  1  0  0  0  0
 16 17  1  0  0  0  0
 17 18  1  0  0  0  0
 18 19  1  0  0  0  0
 18 20  1  0  0  0  0
 18 21  1  0  0  0  0
 22 23  1  0  0  0  0
M  END
>  <NScode>
NS-021945200-0000

>  <a_acc>
3

>  <a_don>
0

>  <chiral>
0

>  <opr_nrot>
7

>  <Weight>
330.375

>  <druglike>
1

>  <lip_druglike>
1

>  <lip_violation>
0

>  <logS>
-3.1343

$$$$
