NS-013371193-0000
  MOE2022           3D

 29 32  0  0  0  0  0  0  0  0999 V2000
    0.8170    1.6510    0.1800 C   0  0  0  0  0  0  0  0  0  0  0  0
    0.4310    2.0310    1.5180 C   0  0  0  0  0  0  0  0  0  0  0  0
   -0.8740    2.3440    1.7590 N   0  0  0  0  0  0  0  0  0  0  0  0
   -0.1150    1.5850   -0.8110 C   0  0  0  0  0  0  0  0  0  0  0  0
   -1.8580    2.3010    0.7640 C   0  0  0  0  0  0  0  0  0  0  0  0
    2.4130   -0.9980   -0.9210 C   0  0  0  0  0  0  0  0  0  0  0  0
   -1.4900    1.9120   -0.5420 C   0  0  0  0  0  0  0  0  0  0  0  0
    2.6020   -0.0980    0.1140 N   0  0  0  0  0  0  0  0  0  0  0  0
    2.2730    1.3260   -0.0800 C   0  0  0  0  0  0  0  0  0  0  0  0
   -3.1730    2.6470    1.0900 C   0  0  0  0  0  0  0  0  0  0  0  0
   -4.1330    2.6030    0.0930 C   0  0  0  0  0  0  0  0  0  0  0  0
   -3.7910    2.1980   -1.2170 C   0  0  0  0  0  0  0  0  0  0  0  0
   -2.4840    1.8620   -1.5340 C   0  0  0  0  0  0  0  0  0  0  0  0
    2.6450   -2.4250   -0.7040 C   0  0  0  0  0  0  0  0  0  0  0  0
    1.1780    2.0880    2.4950 O   0  0  0  0  0  0  0  0  0  0  0  0
    2.0370   -0.5570   -2.0010 O   0  0  0  0  0  0  0  0  0  0  0  0
   -5.4270    2.9690    0.4060 O   0  0  0  0  0  0  0  0  0  0  0  0
   -4.7560    2.1230   -2.2100 O   0  0  0  0  0  0  0  0  0  0  0  0
    3.9430   -2.9280   -0.5510 C   0  0  0  0  0  0  0  0  0  0  0  0
    1.5640   -3.3120   -0.6440 C   0  0  0  0  0  0  0  0  0  0  0  0
    4.1520   -4.2830   -0.3180 C   0  0  0  0  0  0  0  0  0  0  0  0
    1.7750   -4.6670   -0.4110 C   0  0  0  0  0  0  0  0  0  0  0  0
    3.0690   -5.1570   -0.2400 C   0  0  0  0  0  0  0  0  0  0  0  0
    2.8850   -0.5370    1.4960 C   0  0  0  0  0  0  0  0  0  0  0  0
    1.5120   -0.5050    3.5140 O   0  0  0  0  0  0  0  0  0  0  0  0
   -6.1470    2.1830   -1.8110 C   0  0  0  0  0  0  0  0  0  0  0  0
   -6.3570    3.1950   -0.6830 C   0  0  0  0  0  0  0  0  0  0  0  0
    1.6600   -1.1000    2.2380 C   0  0  0  0  0  0  0  0  0  0  0  0
    3.2990   -6.6310    0.0050 C   0  0  0  0  0  0  0  0  0  0  0  0
  1  2  1  0  0  0  0
  1  4  2  0  0  0  0
  1  9  1  0  0  0  0
  2  3  1  0  0  0  0
  2 15  2  0  0  0  0
  3  5  1  0  0  0  0
  4  7  1  0  0  0  0
  5  7  1  0  0  0  0
  5 10  2  0  0  0  0
  6  8  1  0  0  0  0
  6 14  1  0  0  0  0
  6 16  2  0  0  0  0
  7 13  2  0  0  0  0
  8  9  1  0  0  0  0
  8 24  1  0  0  0  0
 10 11  1  0  0  0  0
 11 12  2  0  0  0  0
 11 17  1  0  0  0  0
 12 13  1  0  0  0  0
 12 18  1  0  0  0  0
 14 19  2  0  0  0  0
 14 20  1  0  0  0  0
 17 27  1  0  0  0  0
 18 26  1  0  0  0  0
 19 21  1  0  0  0  0
 20 22  2  0  0  0  0
 21 23  2  0  0  0  0
 22 23  1  0  0  0  0
 23 29  1  0  0  0  0
 24 28  1  0  0  0  0
 25 28  1  0  0  0  0
 26 27  1  0  0  0  0
M  END
>  <NScode>
NS-013371193-0000

>  <a_acc>
5

>  <a_don>
3

>  <chiral>
0

>  <opr_nrot>
6

>  <Weight>
394.427

>  <druglike>
1

>  <lip_druglike>
1

>  <lip_violation>
0

>  <logS>
-4.5802398

$$$$
