NS-006415440-0000
  MOE2022           3D

 16 17  0  0  0  0  0  0  0  0999 V2000
    7.3740   -2.3280    0.1690 N   0  3  0  0  0  0  0  0  0  0  0  0
    2.0740    3.2380   -0.5150 C   0  0  0  0  0  0  0  0  0  0  0  0
    2.1440    1.8510   -0.3860 C   0  0  0  0  0  0  0  0  0  0  0  0
    0.8740    3.9040   -0.2880 C   0  0  0  0  0  0  0  0  0  0  0  0
    3.4800    1.1740   -0.6560 C   0  0  0  0  0  0  0  0  0  0  0  0
    3.6160   -0.2750   -0.1500 C   0  0  0  0  0  0  0  0  0  0  0  0
    0.8800    5.2750   -0.4340 O   0  0  0  0  0  0  0  0  0  0  0  0
    5.0110   -0.8950   -0.3760 C   0  0  0  0  0  0  0  0  0  0  0  0
   -0.2120    1.8180    0.1930 C   0  0  0  0  0  0  0  0  0  0  0  0
    7.4780   -0.8680    0.3750 C   0  0  0  0  0  0  0  0  0  0  0  0
    6.2440   -3.1550   -0.3020 C   0  0  0  0  0  0  0  0  0  0  0  0
    0.9880    1.1450   -0.0350 C   0  0  0  0  0  0  0  0  0  0  0  0
   -0.2760    3.2010    0.0690 C   0  0  0  0  0  0  0  0  0  0  0  0
   -0.2750    6.1260   -0.2650 C   0  0  0  0  0  0  0  0  0  0  0  0
    4.9280   -2.4100   -0.0770 C   0  0  0  0  0  0  0  0  0  0  0  0
    6.0830   -0.2600    0.5420 C   0  0  0  0  0  0  0  0  0  0  0  0
  1 10  1  0  0  0  0
  1 11  1  0  0  0  0
  2  3  2  0  0  0  0
  2  4  1  0  0  0  0
  3  5  1  0  0  0  0
  3 12  1  0  0  0  0
  4  7  1  0  0  0  0
  4 13  2  0  0  0  0
  5  6  1  0  0  0  0
  6  8  1  0  0  0  0
  7 14  1  0  0  0  0
  8 15  1  0  0  0  0
  8 16  1  0  0  0  0
  9 12  2  0  0  0  0
  9 13  1  0  0  0  0
 10 16  1  0  0  0  0
 11 15  1  0  0  0  0
M  CHG  1   1   1
M  END
>  <NScode>
NS-006415440-0000

>  <a_acc>
2

>  <a_don>
1

>  <chiral>
0

>  <opr_nrot>
6

>  <Weight>
219.328

>  <druglike>
1

>  <lip_druglike>
1

>  <lip_violation>
0

>  <logS>
-2.6946101

$$$$
