NS-015441441-0000
  MOE2022           3D

 24 26  0  0  0  0  0  0  0  0999 V2000
    3.5100   -0.7560    0.0330 C   0  0  0  0  0  0  0  0  0  0  0  0
    3.1920    1.4020    0.4590 N   0  0  0  0  0  0  0  0  0  0  0  0
    2.2360   -0.4490   -0.2200 O   0  0  0  0  0  0  0  0  0  0  0  0
    4.0950    0.3910    0.4520 C   0  0  0  0  0  0  0  0  0  0  0  0
    4.0080   -2.1190   -0.1590 C   0  0  0  0  0  0  0  0  0  0  0  0
    2.1060    0.8570    0.0460 C   0  0  0  0  0  0  0  0  0  0  0  0
   -2.3980    1.2510    0.3060 O   0  0  0  0  0  0  0  0  0  0  0  0
   -1.4790    1.9960    0.9540 C   0  0  0  0  0  0  0  0  0  0  0  0
   -3.7090    1.5880   -0.0270 C   0  0  0  0  0  0  0  0  0  0  0  0
    5.3510   -2.4820    0.0410 C   0  0  0  0  0  0  0  0  0  0  0  0
   -4.6770    0.5770    0.0340 C   0  0  0  0  0  0  0  0  0  0  0  0
   -1.7310    3.1130    1.3360 O   0  0  0  0  0  0  0  0  0  0  0  0
    0.7620    1.5190   -0.1250 C   0  0  0  0  0  0  0  0  0  0  0  0
   -0.1250    1.3590    1.1190 C   0  0  0  0  0  0  0  0  0  0  0  0
    6.2660   -1.5580    0.4320 F   0  0  0  0  0  0  0  0  0  0  0  0
   -4.2620   -1.0320    0.5310 Cl  0  0  0  0  0  0  0  0  0  0  0  0
    3.1330   -3.1400   -0.5650 C   0  0  0  0  0  0  0  0  0  0  0  0
   -4.0500    2.8770   -0.4380 C   0  0  0  0  0  0  0  0  0  0  0  0
    5.8170   -3.7770   -0.1430 C   0  0  0  0  0  0  0  0  0  0  0  0
   -5.9970    0.8720   -0.3100 C   0  0  0  0  0  0  0  0  0  0  0  0
    3.5860   -4.4440   -0.7540 C   0  0  0  0  0  0  0  0  0  0  0  0
   -5.3720    3.1600   -0.7790 C   0  0  0  0  0  0  0  0  0  0  0  0
    4.9260   -4.7660   -0.5450 C   0  0  0  0  0  0  0  0  0  0  0  0
   -6.3410    2.1600   -0.7140 C   0  0  0  0  0  0  0  0  0  0  0  0
  1  3  1  0  0  0  0
  1  4  2  0  0  0  0
  1  5  1  0  0  0  0
  2  4  1  0  0  0  0
  2  6  2  0  0  0  0
  3  6  1  0  0  0  0
  5 10  2  0  0  0  0
  5 17  1  0  0  0  0
  6 13  1  0  0  0  0
  7  8  1  0  0  0  0
  7  9  1  0  0  0  0
  8 12  2  0  0  0  0
  8 14  1  0  0  0  0
  9 11  2  0  0  0  0
  9 18  1  0  0  0  0
 10 15  1  0  0  0  0
 10 19  1  0  0  0  0
 11 16  1  0  0  0  0
 11 20  1  0  0  0  0
 13 14  1  0  0  0  0
 17 21  2  0  0  0  0
 18 22  2  0  0  0  0
 19 23  2  0  0  0  0
 20 24  2  0  0  0  0
 21 23  1  0  0  0  0
 22 24  1  0  0  0  0
M  END
>  <NScode>
NS-015441441-0000

>  <a_acc>
2

>  <a_don>
0

>  <chiral>
0

>  <opr_nrot>
5

>  <Weight>
345.75699

>  <druglike>
1

>  <lip_druglike>
1

>  <lip_violation>
0

>  <logS>
-5.5131302

$$$$
