NS-012608437-0000
  MOE2022           3D

 27 30  0  0  0  0  0  0  0  0999 V2000
    1.6300    0.0870   -2.1990 N   0  0  0  0  0  0  0  0  0  0  0  0
    2.6830    0.3090   -1.2910 C   0  0  0  0  0  0  0  0  0  0  0  0
    3.5910    1.3650   -1.5700 C   0  0  0  0  0  0  0  0  0  0  0  0
    1.5540    0.8770   -3.3100 C   0  0  0  0  0  0  0  0  0  0  0  0
    0.5990   -0.8860   -2.1170 C   0  0  0  0  0  0  0  0  0  0  0  0
    4.8690    0.9300    0.5040 N   0  0  0  0  0  0  0  0  0  0  0  0
    4.6730    1.6500   -0.6630 C   0  0  0  0  0  0  0  0  0  0  0  0
    5.8430    1.1090    1.4430 C   0  0  0  0  0  0  0  0  0  0  0  0
    2.4260    1.8700   -3.5720 N   0  0  0  0  0  0  0  0  0  0  0  0
    3.4140    2.1100   -2.7300 C   0  0  0  0  0  0  0  0  0  0  0  0
    0.2190    0.4330   -4.2940 S   0  0  0  0  0  0  0  0  0  0  0  0
   -0.2290   -0.8080   -3.1900 C   0  0  0  0  0  0  0  0  0  0  0  0
    6.8030    2.0330    1.3970 N   0  3  0  0  0  0  0  0  0  0  0  0
    5.9620    0.1430    2.8450 S   0  0  0  0  0  0  0  0  0  0  0  0
    7.6750    2.0180    2.4730 C   0  0  0  0  0  0  0  0  0  0  0  0
    7.3520    1.0420    3.3550 C   0  0  0  0  0  0  0  0  0  0  0  0
    0.4820   -1.8200   -1.0080 C   0  0  0  0  0  0  0  0  0  0  0  0
    2.7720   -0.4270   -0.2960 O   0  0  0  0  0  0  0  0  0  0  0  0
    5.5040    2.5400   -0.8310 O   0  0  0  0  0  0  0  0  0  0  0  0
   -0.2260   -1.4680    0.1500 C   0  0  0  0  0  0  0  0  0  0  0  0
    1.0790   -3.0870   -1.0780 C   0  0  0  0  0  0  0  0  0  0  0  0
    0.2880   -3.6000    1.1350 C   0  0  0  0  0  0  0  0  0  0  0  0
    0.9870   -3.9750   -0.0130 C   0  0  0  0  0  0  0  0  0  0  0  0
   -0.3210   -2.3520    1.2180 C   0  0  0  0  0  0  0  0  0  0  0  0
    0.1670   -4.4320    2.2240 O   0  0  0  0  0  0  0  0  0  0  0  0
    8.8090    3.0150    2.5430 C   0  0  0  0  0  0  0  0  0  0  0  0
    0.7110   -5.7680    2.3020 C   0  0  0  0  0  0  0  0  0  0  0  0
  1  2  1  0  0  0  0
  1  4  1  0  0  0  0
  1  5  1  0  0  0  0
  2  3  1  0  0  0  0
  2 18  2  0  0  0  0
  3  7  1  0  0  0  0
  3 10  2  0  0  0  0
  4  9  2  0  0  0  0
  4 11  1  0  0  0  0
  5 12  2  0  0  0  0
  5 17  1  0  0  0  0
  6  7  1  0  0  0  0
  6  8  1  0  0  0  0
  7 19  2  0  0  0  0
  8 13  2  0  0  0  0
  8 14  1  0  0  0  0
  9 10  1  0  0  0  0
 11 12  1  0  0  0  0
 13 15  1  0  0  0  0
 14 16  1  0  0  0  0
 15 16  2  0  0  0  0
 15 26  1  0  0  0  0
 17 20  1  0  0  0  0
 17 21  2  0  0  0  0
 20 24  2  0  0  0  0
 21 23  1  0  0  0  0
 22 23  2  0  0  0  0
 22 24  1  0  0  0  0
 22 25  1  0  0  0  0
 25 27  1  0  0  0  0
M  CHG  1  13   1
M  END
>  <NScode>
NS-012608437-0000

>  <a_acc>
5

>  <a_don>
1

>  <chiral>
0

>  <opr_nrot>
3

>  <Weight>
398.46701

>  <druglike>
1

>  <lip_druglike>
1

>  <lip_violation>
0

>  <logS>
-4.9286699

$$$$
