NS-005812858-0000
  MOE2022           3D

 26 28  0  0  0  0  0  0  0  0999 V2000
   -1.0320   -0.3490   -0.1500 N   0  0  0  0  0  0  0  0  0  0  0  0
    0.2410    0.2700   -0.0100 C   0  0  0  0  0  0  0  0  0  0  0  0
   -1.1800   -1.7940    0.1660 C   0  0  0  0  0  0  0  0  0  0  0  0
   -2.2030    0.5180    0.1820 C   0  0  0  0  0  0  0  0  0  0  0  0
    0.4380    1.5410   -0.5670 C   0  0  0  0  0  0  0  0  0  0  0  0
    1.2980   -0.3620    0.6640 C   0  0  0  0  0  0  0  0  0  0  0  0
   -2.4810   -2.4210   -0.4000 C   0  0  0  0  0  0  0  0  0  0  0  0
   -3.5200   -0.2580    0.4290 C   0  0  0  0  0  0  0  0  0  0  0  0
    1.6690    2.1760   -0.4470 C   0  0  0  0  0  0  0  0  0  0  0  0
    2.5300    0.2740    0.7810 C   0  0  0  0  0  0  0  0  0  0  0  0
   -3.7040   -1.4900   -0.4630 N   0  3  0  0  0  0  0  0  0  0  0  0
    2.7150    1.5380    0.2220 C   0  0  0  0  0  0  0  0  0  0  0  0
   -5.0360   -2.1790   -0.2930 C   0  0  0  0  0  0  0  0  0  0  0  0
    3.9870    2.1470    0.3880 N   0  0  0  0  0  0  0  0  0  0  0  0
   -6.2110   -1.2460   -0.4500 C   0  0  0  0  0  0  0  0  0  0  0  0
    4.6280    2.9830   -0.4870 C   0  0  0  0  0  0  0  0  0  0  0  0
   -6.9110   -0.8030    0.6740 C   0  0  0  0  0  0  0  0  0  0  0  0
   -6.5930   -0.8020   -1.7160 C   0  0  0  0  0  0  0  0  0  0  0  0
    5.9830    3.4950   -0.0560 C   0  0  0  0  0  0  0  0  0  0  0  0
    4.1390    3.2660   -1.5590 O   0  0  0  0  0  0  0  0  0  0  0  0
   -7.9770    0.0790    0.5310 C   0  0  0  0  0  0  0  0  0  0  0  0
   -7.6600    0.0800   -1.8560 C   0  0  0  0  0  0  0  0  0  0  0  0
    7.1200    2.4490   -0.0960 C   0  0  0  0  0  0  0  0  0  0  0  0
   -8.3500    0.5210   -0.7330 C   0  0  0  0  0  0  0  0  0  0  0  0
    8.4190    3.0300    0.4760 C   0  0  0  0  0  0  0  0  0  0  0  0
    7.3820    1.9470   -1.5230 C   0  0  0  0  0  0  0  0  0  0  0  0
  1  2  1  0  0  0  0
  1  3  1  0  0  0  0
  1  4  1  0  0  0  0
  2  5  2  0  0  0  0
  2  6  1  0  0  0  0
  3  7  1  0  0  0  0
  4  8  1  0  0  0  0
  5  9  1  0  0  0  0
  6 10  2  0  0  0  0
  7 11  1  0  0  0  0
  8 11  1  0  0  0  0
  9 12  2  0  0  0  0
 10 12  1  0  0  0  0
 11 13  1  0  0  0  0
 12 14  1  0  0  0  0
 13 15  1  0  0  0  0
 14 16  1  0  0  0  0
 15 17  2  0  0  0  0
 15 18  1  0  0  0  0
 16 19  1  0  0  0  0
 16 20  2  0  0  0  0
 17 21  1  0  0  0  0
 18 22  2  0  0  0  0
 19 23  1  0  0  0  0
 21 24  2  0  0  0  0
 22 24  1  0  0  0  0
 23 25  1  0  0  0  0
 23 26  1  0  0  0  0
M  CHG  1  11   1
M  END
>  <NScode>
NS-005812858-0000

>  <a_acc>
2

>  <a_don>
1

>  <chiral>
0

>  <opr_nrot>
8

>  <Weight>
351.49399

>  <druglike>
1

>  <lip_druglike>
1

>  <lip_violation>
0

>  <logS>
-4.5685802

$$$$
