NS-042317361-0000
  MOE2022           3D

 25 26  0  0  0  0  0  0  0  0999 V2000
    3.5230    1.8340   -0.2520 C   0  0  0  0  0  0  0  0  0  0  0  0
    3.4780    0.3230   -0.0660 C   0  0  0  0  0  0  0  0  0  0  0  0
    3.9740   -0.5110   -1.0780 C   0  0  0  0  0  0  0  0  0  0  0  0
    4.5850    0.0200   -2.2080 N   0  0  0  0  0  0  0  0  0  0  0  0
    3.8810   -1.8940   -0.9830 C   0  0  0  0  0  0  0  0  0  0  0  0
    3.3060   -2.4620    0.1440 C   0  0  0  0  0  0  0  0  0  0  0  0
    3.1980   -3.9720    0.2680 C   0  0  0  0  0  0  0  0  0  0  0  0
    1.8620   -4.4430    0.6890 N   0  0  0  0  0  0  0  0  0  0  0  0
    1.8530   -5.9210    0.8170 C   0  0  0  0  0  0  0  0  0  0  0  0
    0.4730   -6.4800    1.2190 C   0  0  0  0  0  0  0  0  0  0  0  0
   -0.6160   -6.0020    0.3490 N   0  0  0  0  0  0  0  0  0  0  0  0
   -0.5840   -4.5510    0.0710 C   0  0  0  0  0  0  0  0  0  0  0  0
    0.8230   -4.0390   -0.2980 C   0  0  0  0  0  0  0  0  0  0  0  0
   -1.7160   -6.7840    0.1110 C   0  0  0  0  0  0  0  0  0  0  0  0
   -1.7690   -7.9570    0.4600 O   0  0  0  0  0  0  0  0  0  0  0  0
   -2.7290   -6.1670   -0.5320 O   0  0  0  0  0  0  0  0  0  0  0  0
   -4.0060   -6.7120   -0.9090 C   0  0  0  0  0  0  0  0  0  0  0  0
   -3.8200   -7.8520   -1.9160 C   0  0  0  0  0  0  0  0  0  0  0  0
   -4.7820   -5.5790   -1.5840 C   0  0  0  0  0  0  0  0  0  0  0  0
   -4.7830   -7.1650    0.3330 C   0  0  0  0  0  0  0  0  0  0  0  0
    2.8470   -1.6340    1.1650 C   0  0  0  0  0  0  0  0  0  0  0  0
    2.9290   -0.2310    1.1100 C   0  0  0  0  0  0  0  0  0  0  0  0
    2.4250    0.6270    2.3250 B   0  0  0  0  0  0  0  0  0  0  0  0
    3.1120    1.6040    2.8490 O   0  0  0  0  0  0  0  0  0  0  0  0
    1.3060    0.4450    2.9540 O   0  0  0  0  0  0  0  0  0  0  0  0
  1  2  1  0  0  0  0
  2  3  1  0  0  0  0
  2 22  2  0  0  0  0
  3  4  1  0  0  0  0
  3  5  2  0  0  0  0
  5  6  1  0  0  0  0
  6  7  1  0  0  0  0
  6 21  2  0  0  0  0
  7  8  1  0  0  0  0
  8  9  1  0  0  0  0
  8 13  1  0  0  0  0
  9 10  1  0  0  0  0
 10 11  1  0  0  0  0
 11 12  1  0  0  0  0
 11 14  1  0  0  0  0
 12 13  1  0  0  0  0
 14 15  2  0  0  0  0
 14 16  1  0  0  0  0
 16 17  1  0  0  0  0
 17 18  1  0  0  0  0
 17 19  1  0  0  0  0
 17 20  1  0  0  0  0
 21 22  1  0  0  0  0
 22 23  1  0  0  0  0
 23 24  1  0  0  0  0
 23 25  1  0  0  0  0
M  END
>  <NScode>
NS-042317361-0000

>  <a_acc>
4

>  <a_don>
3

>  <chiral>
0

>  <opr_nrot>
6

>  <Weight>
349.23898

>  <druglike>
0

>  <lip_druglike>
1

>  <lip_violation>
0

>  <logS>
-2.01753

$$$$
