NS-012588713-0000
  MOE2022           3D

 29 31  0  0  0  0  0  0  0  0999 V2000
   13.1860   -5.5450    0.3330 C   0  0  0  0  0  0  0  0  0  0  0  0
    4.4750   -1.7730    0.4140 C   0  0  0  0  0  0  0  0  0  0  0  0
   -0.0990   -5.1590   -0.0260 C   0  0  0  0  0  0  0  0  0  0  0  0
    3.3870   -2.5890    0.2320 N   0  0  0  0  0  0  0  0  0  0  0  0
    0.9740   -4.2840   -0.0080 N   0  0  0  0  0  0  0  0  0  0  0  0
   11.9750   -4.6460    0.1520 C   0  0  0  0  0  0  0  0  0  0  0  0
    8.5180   -2.4410    0.0310 N   0  0  0  0  0  0  0  0  0  0  0  0
    9.7690   -4.0940    0.8910 N   0  0  0  0  0  0  0  0  0  0  0  0
    5.5200   -1.9570   -0.4270 N   0  0  0  0  0  0  0  0  0  0  0  0
    9.7220   -3.1250   -0.0170 C   0  0  0  0  0  0  0  0  0  0  0  0
    7.9760   -1.5670   -0.8700 C   0  0  0  0  0  0  0  0  0  0  0  0
   -1.1060   -4.9430    0.8290 N   0  0  0  0  0  0  0  0  0  0  0  0
   -0.0700   -6.1730   -0.9010 N   0  0  0  0  0  0  0  0  0  0  0  0
   10.8680   -4.8420    0.9790 C   0  0  0  0  0  0  0  0  0  0  0  0
    2.1180   -2.2180    0.9020 C   0  0  0  0  0  0  0  0  0  0  0  0
    3.2040   -3.5040   -0.9220 C   0  0  0  0  0  0  0  0  0  0  0  0
    1.1710   -3.4040    1.1690 C   0  0  0  0  0  0  0  0  0  0  0  0
    2.2500   -4.6850   -0.6430 C   0  0  0  0  0  0  0  0  0  0  0  0
    4.5140   -0.9160    1.2890 O   0  0  0  0  0  0  0  0  0  0  0  0
   11.9330   -3.6190   -0.7960 C   0  0  0  0  0  0  0  0  0  0  0  0
    8.5240   -1.3330   -1.9270 O   0  0  0  0  0  0  0  0  0  0  0  0
   13.8650   -5.2420    1.4480 F   0  0  0  0  0  0  0  0  0  0  0  0
   14.0610   -5.4620   -0.6840 F   0  0  0  0  0  0  0  0  0  0  0  0
   12.8430   -6.8390    0.4360 F   0  0  0  0  0  0  0  0  0  0  0  0
    6.6270   -0.9770   -0.5000 C   0  0  0  0  0  0  0  0  0  0  0  0
   10.7880   -2.8460   -0.8800 C   0  0  0  0  0  0  0  0  0  0  0  0
   -2.1640   -6.8320   -0.0740 C   0  0  0  0  0  0  0  0  0  0  0  0
   -2.1360   -5.7670    0.8120 C   0  0  0  0  0  0  0  0  0  0  0  0
   -1.0920   -7.0070   -0.9330 C   0  0  0  0  0  0  0  0  0  0  0  0
  1  6  1  0  0  0  0
  1 22  1  0  0  0  0
  1 23  1  0  0  0  0
  1 24  1  0  0  0  0
  2  4  1  0  0  0  0
  2  9  1  0  0  0  0
  2 19  2  0  0  0  0
  3  5  1  0  0  0  0
  3 12  2  0  0  0  0
  3 13  1  0  0  0  0
  4 15  1  0  0  0  0
  4 16  1  0  0  0  0
  5 17  1  0  0  0  0
  5 18  1  0  0  0  0
  6 14  2  0  0  0  0
  6 20  1  0  0  0  0
  7 10  1  0  0  0  0
  7 11  1  0  0  0  0
  8 10  2  0  0  0  0
  8 14  1  0  0  0  0
  9 25  1  0  0  0  0
 10 26  1  0  0  0  0
 11 21  2  0  0  0  0
 11 25  1  0  0  0  0
 12 28  1  0  0  0  0
 13 29  2  0  0  0  0
 15 17  1  0  0  0  0
 16 18  1  0  0  0  0
 20 26  2  0  0  0  0
 27 28  2  0  0  0  0
 27 29  1  0  0  0  0
M  END
>  <NScode>
NS-012588713-0000

>  <a_acc>
5

>  <a_don>
2

>  <chiral>
0

>  <opr_nrot>
6

>  <Weight>
409.37198

>  <druglike>
1

>  <lip_druglike>
1

>  <lip_violation>
0

>  <logS>
-2.97963

$$$$
