NS-017225341-0000
  MOE2022           3D

 26 28  0  0  0  0  0  0  0  0999 V2000
   -1.5860   -1.2080   -0.1570 N   0  0  0  0  0  0  0  0  0  0  0  0
   -2.8380   -1.1120   -0.6780 C   0  0  0  0  0  0  0  0  0  0  0  0
   -2.8370   -0.1370   -1.5450 N   0  0  0  0  0  0  0  0  0  0  0  0
   -0.8540   -0.2430   -0.7330 C   0  0  0  0  0  0  0  0  0  0  0  0
   -1.5860    0.4180   -1.5810 N   0  0  0  0  0  0  0  0  0  0  0  0
   -3.9800   -1.9520   -0.3460 C   0  0  0  0  0  0  0  0  0  0  0  0
   -1.0570   -2.1720    0.8100 C   0  0  0  0  0  0  0  0  0  0  0  0
   -1.0200   -1.6510    2.2580 C   0  0  0  0  0  0  0  0  0  0  0  0
   -4.2410   -2.6780    1.2150 S   0  0  0  0  0  0  0  0  0  0  0  0
   -0.5090   -2.6830    3.2490 C   0  0  0  0  0  0  0  0  0  0  0  0
   -5.0290   -2.2540   -1.1860 C   0  0  0  0  0  0  0  0  0  0  0  0
   -5.7320   -3.3770    0.7000 C   0  0  0  0  0  0  0  0  0  0  0  0
    0.8310    0.0210   -0.3450 S   0  0  0  0  0  0  0  0  0  0  0  0
   -6.0130   -3.0610   -0.5970 C   0  0  0  0  0  0  0  0  0  0  0  0
   -0.1070   -3.7740    2.8860 O   0  0  0  0  0  0  0  0  0  0  0  0
    2.9570    5.3840   -2.5390 C   0  0  0  0  0  0  0  0  0  0  0  0
    2.5750    4.3830   -1.6430 C   0  0  0  0  0  0  0  0  0  0  0  0
   -0.5100   -2.3760    4.5310 N   0  0  0  0  0  0  0  0  0  0  0  0
    2.0840    5.8330   -3.4720 F   0  0  0  0  0  0  0  0  0  0  0  0
    1.2920    3.8610   -1.7250 O   0  0  0  0  0  0  0  0  0  0  0  0
    1.2740    1.4040   -1.4550 C   0  0  0  0  0  0  0  0  0  0  0  0
    4.2280    5.9430   -2.5080 C   0  0  0  0  0  0  0  0  0  0  0  0
    3.4930    3.9360   -0.6880 C   0  0  0  0  0  0  0  0  0  0  0  0
    0.7540    2.7540   -0.9600 C   0  0  0  0  0  0  0  0  0  0  0  0
    5.1410    5.4920   -1.5560 C   0  0  0  0  0  0  0  0  0  0  0  0
    4.7720    4.4930   -0.6520 C   0  0  0  0  0  0  0  0  0  0  0  0
  1  2  1  0  0  0  0
  1  4  1  0  0  0  0
  1  7  1  0  0  0  0
  2  3  2  0  0  0  0
  2  6  1  0  0  0  0
  3  5  1  0  0  0  0
  4  5  2  0  0  0  0
  4 13  1  0  0  0  0
  6  9  1  0  0  0  0
  6 11  2  0  0  0  0
  7  8  1  0  0  0  0
  8 10  1  0  0  0  0
  9 12  1  0  0  0  0
 10 15  2  0  0  0  0
 10 18  1  0  0  0  0
 11 14  1  0  0  0  0
 12 14  2  0  0  0  0
 13 21  1  0  0  0  0
 16 17  2  0  0  0  0
 16 19  1  0  0  0  0
 16 22  1  0  0  0  0
 17 20  1  0  0  0  0
 17 23  1  0  0  0  0
 20 24  1  0  0  0  0
 21 24  1  0  0  0  0
 22 25  2  0  0  0  0
 23 26  2  0  0  0  0
 25 26  1  0  0  0  0
M  END
>  <NScode>
NS-017225341-0000

>  <a_acc>
4

>  <a_don>
1

>  <chiral>
0

>  <opr_nrot>
9

>  <Weight>
392.479

>  <druglike>
1

>  <lip_druglike>
1

>  <lip_violation>
0

>  <logS>
-6.1089201

$$$$
