NS-016903346-0000
  MOE2022           3D

 29 32  0  0  0  0  0  0  0  0999 V2000
   -5.2710   -0.0750   -0.3360 N   0  0  0  0  0  0  0  0  0  0  0  0
   -4.8190    0.9670   -1.1000 C   0  0  0  0  0  0  0  0  0  0  0  0
   -4.5450   -0.4750    0.7760 C   0  0  0  0  0  0  0  0  0  0  0  0
   -3.6970    1.6340   -0.8390 N   0  0  0  0  0  0  0  0  0  0  0  0
   -3.3540    0.2380    1.0430 C   0  0  0  0  0  0  0  0  0  0  0  0
   -2.9520    1.2660    0.2270 C   0  0  0  0  0  0  0  0  0  0  0  0
    2.3720    0.4870    0.0240 N   0  0  0  0  0  0  0  0  0  0  0  0
    3.6670    0.1410    0.2070 C   0  0  0  0  0  0  0  0  0  0  0  0
   -5.9130    1.2600   -2.4070 S   0  0  0  0  0  0  0  0  0  0  0  0
   -6.4710   -0.6440   -0.7800 C   0  0  0  0  0  0  0  0  0  0  0  0
   -0.4400    1.4240   -0.0780 N   0  0  0  0  0  0  0  0  0  0  0  0
    3.4590   -4.5510   -1.1420 C   0  0  0  0  0  0  0  0  0  0  0  0
   -6.9390   -0.0320   -1.8860 C   0  0  0  0  0  0  0  0  0  0  0  0
    3.7340   -5.9100   -1.0880 C   0  0  0  0  0  0  0  0  0  0  0  0
    3.9760   -3.6590   -0.2010 C   0  0  0  0  0  0  0  0  0  0  0  0
   -4.9940   -1.4200    1.4470 O   0  0  0  0  0  0  0  0  0  0  0  0
   -1.6650    2.0310    0.5080 C   0  0  0  0  0  0  0  0  0  0  0  0
    3.6690   -2.3140   -0.3130 O   0  0  0  0  0  0  0  0  0  0  0  0
    4.0390   -1.2680    0.6450 C   0  0  0  0  0  0  0  0  0  0  0  0
    1.2380   -0.4670    0.0310 C   0  0  0  0  0  0  0  0  0  0  0  0
    2.0140    1.8070   -0.5380 C   0  0  0  0  0  0  0  0  0  0  0  0
    4.5570    0.9730    0.0450 O   0  0  0  0  0  0  0  0  0  0  0  0
    4.7900   -4.1450    0.8260 C   0  0  0  0  0  0  0  0  0  0  0  0
    4.5470   -6.3920   -0.0640 C   0  0  0  0  0  0  0  0  0  0  0  0
    0.6970    2.3720    0.0310 C   0  0  0  0  0  0  0  0  0  0  0  0
   -0.0700    0.1440    0.5800 C   0  0  0  0  0  0  0  0  0  0  0  0
    2.6620   -4.0980   -2.1370 F   0  0  0  0  0  0  0  0  0  0  0  0
    5.0710   -5.5110    0.8870 C   0  0  0  0  0  0  0  0  0  0  0  0
    4.9410   -8.2370    0.0410 Br  0  0  0  0  0  0  0  0  0  0  0  0
  1  2  1  0  0  0  0
  1  3  1  0  0  0  0
  1 10  1  0  0  0  0
  2  4  2  0  0  0  0
  2  9  1  0  0  0  0
  3  5  1  0  0  0  0
  3 16  2  0  0  0  0
  4  6  1  0  0  0  0
  5  6  2  0  0  0  0
  6 17  1  0  0  0  0
  7  8  1  0  0  0  0
  7 20  1  0  0  0  0
  7 21  1  0  0  0  0
  8 19  1  0  0  0  0
  8 22  2  0  0  0  0
  9 13  1  0  0  0  0
 10 13  2  0  0  0  0
 11 17  1  0  0  0  0
 11 25  1  0  0  0  0
 11 26  1  0  0  0  0
 12 14  1  0  0  0  0
 12 15  2  0  0  0  0
 12 27  1  0  0  0  0
 14 24  2  0  0  0  0
 15 18  1  0  0  0  0
 15 23  1  0  0  0  0
 18 19  1  0  0  0  0
 20 26  1  0  0  0  0
 21 25  1  0  0  0  0
 23 28  2  0  0  0  0
 24 28  1  0  0  0  0
 24 29  1  0  0  0  0
M  END
>  <NScode>
NS-016903346-0000

>  <a_acc>
5

>  <a_don>
0

>  <chiral>
0

>  <opr_nrot>
7

>  <Weight>
481.34601

>  <druglike>
1

>  <lip_druglike>
1

>  <lip_violation>
0

>  <logS>
-4.8431001

$$$$
