NS-019909768-0000
  MOE2022           3D

 23 24  0  0  1  0  0  0  0  0999 V2000
   -0.0200   -1.3610   -1.4410 S   0  0  0  0  0  0  0  0  0  0  0  0
   -0.4190   -0.2760   -0.2540 N   0  0  0  0  0  0  0  0  0  0  0  0
    0.0880   -2.9470   -0.5820 C   0  0  0  0  0  0  0  0  0  0  0  0
    1.2050    2.2270    0.0900 N   0  0  0  0  0  0  0  0  0  0  0  0
   -1.5680    3.1490    2.1340 N   0  0  0  0  0  0  0  0  0  0  0  0
   -3.1760   -5.8750    1.4700 N   0  0  0  0  0  0  0  0  0  0  0  0
   -1.0850   -1.4260   -2.3790 O   0  0  0  0  0  0  0  0  0  0  0  0
    1.2630   -1.0320   -1.9570 O   0  0  0  0  0  0  0  0  0  0  0  0
    0.8920    3.2040    1.2090 C   0  0  3  0  0  0  0  0  0  0  0  0
   -0.5050    3.1780    1.7320 C   0  0  0  0  0  0  0  0  0  0  0  0
    0.5050   -0.0920    0.8780 C   0  0  0  0  0  0  0  0  0  0  0  0
   -0.9450    1.0290   -0.6840 C   0  0  0  0  0  0  0  0  0  0  0  0
   -2.2220   -5.3910    1.0720 C   0  0  0  0  0  0  0  0  0  0  0  0
    0.1640    2.0730   -0.9830 C   0  0  0  0  0  0  0  0  0  0  0  0
    1.6600    0.8910    0.5610 C   0  0  0  0  0  0  0  0  0  0  0  0
   -1.0730   -3.5590   -0.1050 C   0  0  0  0  0  0  0  0  0  0  0  0
   -1.0160   -4.7790    0.5730 C   0  0  0  0  0  0  0  0  0  0  0  0
    1.3980    4.6460    0.8990 C   0  0  0  0  0  0  0  0  0  0  0  0
    1.3170   -3.5830   -0.3860 C   0  0  0  0  0  0  0  0  0  0  0  0
    1.3840   -4.8010    0.2850 C   0  0  0  0  0  0  0  0  0  0  0  0
    0.2230   -5.3950    0.7650 C   0  0  0  0  0  0  0  0  0  0  0  0
    0.7060    5.3380   -0.2910 C   0  0  0  0  0  0  0  0  0  0  0  0
    2.9200    4.6900    0.6740 C   0  0  0  0  0  0  0  0  0  0  0  0
  1  2  1  0  0  0  0
  1  3  1  0  0  0  0
  1  7  2  0  0  0  0
  1  8  2  0  0  0  0
  2 11  1  0  0  0  0
  2 12  1  0  0  0  0
  3 16  2  0  0  0  0
  3 19  1  0  0  0  0
  4  9  1  0  0  0  0
  4 14  1  0  0  0  0
  4 15  1  0  0  0  0
  5 10  3  0  0  0  0
  6 13  3  0  0  0  0
  9 10  1  0  0  0  0
  9 18  1  0  0  0  0
 11 15  1  0  0  0  0
 12 14  1  0  0  0  0
 13 17  1  0  0  0  0
 16 17  1  0  0  0  0
 17 21  2  0  0  0  0
 18 22  1  0  0  0  0
 18 23  1  0  0  0  0
 19 20  2  0  0  0  0
 20 21  1  0  0  0  0
M  END
>  <NScode>
NS-019909768-0000

>  <a_acc>
5

>  <a_don>
0

>  <chiral>
1

>  <opr_nrot>
7

>  <Weight>
332.42801

>  <druglike>
1

>  <lip_druglike>
1

>  <lip_violation>
0

>  <logS>
-2.80422

$$$$
