NS-020277179-0001
  MOE2022           3D

 19 20  0  0  1  0  0  0  0  0999 V2000
    6.5820    2.4390    2.0290 C   0  0  0  0  0  0  0  0  0  0  0  0
    6.4820    2.1210    0.5770 N   0  3  0  0  0  0  0  0  0  0  0  0
    6.7270    0.6880    0.2630 C   0  0  3  0  0  0  0  0  0  0  0  0
    8.1570    0.2580    0.6560 C   0  0  0  0  0  0  0  0  0  0  0  0
    8.3990   -1.2310    0.3170 C   0  0  0  0  0  0  0  0  0  0  0  0
    7.9940   -1.6040   -1.1220 C   0  0  0  0  0  0  0  0  0  0  0  0
    6.6190   -1.1570   -1.3960 N   0  0  0  0  0  0  0  0  0  0  0  0
    6.4510    0.2920   -1.2080 C   0  0  0  0  0  0  0  0  0  0  0  0
    5.5930   -2.0450   -1.3770 C   0  0  0  0  0  0  0  0  0  0  0  0
    5.8190   -3.2470   -1.3250 O   0  0  0  0  0  0  0  0  0  0  0  0
    4.1560   -1.5470   -1.3480 C   0  0  0  0  0  0  0  0  0  0  0  0
    3.8510   -0.7120   -0.1680 O   0  0  0  0  0  0  0  0  0  0  0  0
    2.6610   -0.0610    0.0480 C   0  0  0  0  0  0  0  0  0  0  0  0
    2.4470    0.4660    1.3230 C   0  0  0  0  0  0  0  0  0  0  0  0
    1.2680    1.1570    1.6030 C   0  0  0  0  0  0  0  0  0  0  0  0
    0.3040    1.3180    0.6090 C   0  0  0  0  0  0  0  0  0  0  0  0
    0.5410    0.7760   -0.6500 C   0  0  0  0  0  0  0  0  0  0  0  0
   -0.3940    0.9320   -1.6120 F   0  0  0  0  0  0  0  0  0  0  0  0
    1.7030    0.0830   -0.9570 C   0  0  0  0  0  0  0  0  0  0  0  0
  1  2  1  0  0  0  0
  2  3  1  0  0  0  0
  3  4  1  0  0  0  0
  3  8  1  0  0  0  0
  4  5  1  0  0  0  0
  5  6  1  0  0  0  0
  6  7  1  0  0  0  0
  7  8  1  0  0  0  0
  7  9  1  0  0  0  0
  9 10  2  0  0  0  0
  9 11  1  0  0  0  0
 11 12  1  0  0  0  0
 12 13  1  0  0  0  0
 13 14  1  0  0  0  0
 13 19  2  0  0  0  0
 14 15  2  0  0  0  0
 15 16  1  0  0  0  0
 16 17  2  0  0  0  0
 17 18  1  0  0  0  0
 17 19  1  0  0  0  0
M  CHG  1   2   1
M  END
>  <NScode>
NS-020277179-0001

>  <a_acc>
3

>  <a_don>
1

>  <chiral>
1

>  <opr_nrot>
6

>  <Weight>
266.31598

>  <druglike>
1

>  <lip_druglike>
1

>  <lip_violation>
0

>  <logS>
-2.1161399

$$$$
