NS-023549179-0000
  MOE2022           3D

 24 26  0  0  0  0  0  0  0  0999 V2000
    7.1300   -1.7050    0.2960 C   0  0  0  0  0  0  0  0  0  0  0  0
    5.6400   -1.3710    0.3080 C   0  0  0  0  0  0  0  0  0  0  0  0
    4.8340   -2.5710    0.2820 O   0  0  0  0  0  0  0  0  0  0  0  0
    3.4650   -2.5310    0.2680 C   0  0  0  0  0  0  0  0  0  0  0  0
    2.7670   -3.7290    0.2610 C   0  0  0  0  0  0  0  0  0  0  0  0
    1.3810   -3.6750    0.2410 C   0  0  0  0  0  0  0  0  0  0  0  0
    0.7830   -2.4180    0.2260 C   0  0  0  0  0  0  0  0  0  0  0  0
    1.5070   -1.2740    0.2420 N   0  0  0  0  0  0  0  0  0  0  0  0
    2.8380   -1.3330    0.2600 N   0  0  0  0  0  0  0  0  0  0  0  0
   -0.6660   -2.3210    0.2010 N   0  0  0  0  0  0  0  0  0  0  0  0
   -1.4590   -3.2370    0.8580 N   0  0  0  0  0  0  0  0  0  0  0  0
   -2.6810   -2.8670    0.6260 C   0  0  0  0  0  0  0  0  0  0  0  0
   -2.7310   -1.7210   -0.1680 C   0  0  0  0  0  0  0  0  0  0  0  0
   -3.9760   -1.0830   -0.5720 C   0  0  0  0  0  0  0  0  0  0  0  0
   -4.9810   -1.7160   -0.8760 O   0  0  0  0  0  0  0  0  0  0  0  0
   -4.0750    0.2800   -0.5900 N   0  0  0  0  0  0  0  0  0  0  0  0
   -5.3110    1.0870   -0.6150 C   0  0  0  0  0  0  0  0  0  0  0  0
   -4.6290    2.1910    0.2510 C   0  0  0  0  0  0  0  0  0  0  0  0
   -5.2270    2.3570    1.5650 O   0  0  0  0  0  0  0  0  0  0  0  0
   -4.4460    3.5660   -0.4220 C   0  0  0  0  0  0  0  0  0  0  0  0
   -5.7530    4.3560   -0.6180 C   0  0  0  0  0  0  0  0  0  0  0  0
   -3.3740    1.2650    0.2520 C   0  0  0  0  0  0  0  0  0  0  0  0
   -1.4360   -1.3940   -0.4570 C   0  0  0  0  0  0  0  0  0  0  0  0
   -0.8680   -0.3030   -1.3510 C   0  0  0  0  0  0  0  0  0  0  0  0
  1  2  1  0  0  0  0
  2  3  1  0  0  0  0
  3  4  1  0  0  0  0
  4  5  1  0  0  0  0
  4  9  2  0  0  0  0
  5  6  2  0  0  0  0
  6  7  1  0  0  0  0
  7  8  2  0  0  0  0
  7 10  1  0  0  0  0
  8  9  1  0  0  0  0
 10 11  1  0  0  0  0
 10 23  1  0  0  0  0
 11 12  2  0  0  0  0
 12 13  1  0  0  0  0
 13 14  1  0  0  0  0
 13 23  2  0  0  0  0
 14 15  2  0  0  0  0
 14 16  1  0  0  0  0
 16 17  1  0  0  0  0
 16 22  1  0  0  0  0
 17 18  1  0  0  0  0
 18 19  1  0  0  0  0
 18 20  1  0  0  0  0
 18 22  1  0  0  0  0
 20 21  1  0  0  0  0
 23 24  1  0  0  0  0
M  END
>  <NScode>
NS-023549179-0000

>  <a_acc>
5

>  <a_don>
1

>  <chiral>
0

>  <opr_nrot>
5

>  <Weight>
331.37601

>  <druglike>
1

>  <lip_druglike>
1

>  <lip_violation>
0

>  <logS>
-2.1023901

$$$$
