NS-019601900-0000
  MOE2022           3D

 23 24  0  0  0  0  0  0  0  0999 V2000
   -2.0060   -0.2860    1.6120 C   0  0  0  0  0  0  0  0  0  0  0  0
   -2.8400   -0.3830    0.4080 C   0  0  0  0  0  0  0  0  0  0  0  0
   -0.8950   -1.0500    1.8060 N   0  0  0  0  0  0  0  0  0  0  0  0
    1.7740    0.0470    1.0650 N   0  3  0  0  0  0  0  0  0  0  0  0
   -2.2110    0.4890    2.5270 O   0  0  0  0  0  0  0  0  0  0  0  0
   -3.1290    0.7490   -0.3890 C   0  0  0  0  0  0  0  0  0  0  0  0
   -3.3590   -1.6300    0.0320 C   0  0  0  0  0  0  0  0  0  0  0  0
   -0.2020   -1.9180    0.8520 C   0  0  0  0  0  0  0  0  0  0  0  0
   -3.9000    0.6130   -1.5470 C   0  0  0  0  0  0  0  0  0  0  0  0
    1.1210   -2.3970    1.4770 C   0  0  0  0  0  0  0  0  0  0  0  0
    0.1620   -1.2080   -0.4650 C   0  0  0  0  0  0  0  0  0  0  0  0
    2.2380   -1.3350    1.4730 C   0  0  0  0  0  0  0  0  0  0  0  0
    1.0170    0.0470   -0.2460 C   0  0  0  0  0  0  0  0  0  0  0  0
   -4.1130   -1.7300   -1.1250 C   0  0  0  0  0  0  0  0  0  0  0  0
   -4.3920   -0.6330   -1.9250 C   0  0  0  0  0  0  0  0  0  0  0  0
   -4.5900   -2.9410   -1.4850 F   0  0  0  0  0  0  0  0  0  0  0  0
    2.8330    1.1440    1.1860 C   0  0  0  0  0  0  0  0  0  0  0  0
    4.0560    1.0480    0.2610 C   0  0  0  0  0  0  0  0  0  0  0  0
    4.9210    2.1420    0.5060 O   0  0  0  0  0  0  0  0  0  0  0  0
   -2.6410    2.1330    0.0000 C   0  0  0  0  0  0  0  0  0  0  0  0
    6.1350    2.1430   -0.2270 C   0  0  0  0  0  0  0  0  0  0  0  0
    7.0230    3.1960    0.4300 C   0  0  0  0  0  0  0  0  0  0  0  0
    5.8890    2.5190   -1.6910 C   0  0  0  0  0  0  0  0  0  0  0  0
  1  2  1  0  0  0  0
  1  3  1  0  0  0  0
  1  5  2  0  0  0  0
  2  6  2  0  0  0  0
  2  7  1  0  0  0  0
  3  8  1  0  0  0  0
  4 12  1  0  0  0  0
  4 13  1  0  0  0  0
  4 17  1  0  0  0  0
  6  9  1  0  0  0  0
  6 20  1  0  0  0  0
  7 14  2  0  0  0  0
  8 10  1  0  0  0  0
  8 11  1  0  0  0  0
  9 15  2  0  0  0  0
 10 12  1  0  0  0  0
 11 13  1  0  0  0  0
 14 15  1  0  0  0  0
 14 16  1  0  0  0  0
 17 18  1  0  0  0  0
 18 19  1  0  0  0  0
 19 21  1  0  0  0  0
 21 22  1  0  0  0  0
 21 23  1  0  0  0  0
M  CHG  1   4   1
M  END
>  <NScode>
NS-019601900-0000

>  <a_acc>
3

>  <a_don>
1

>  <chiral>
0

>  <opr_nrot>
8

>  <Weight>
322.42398

>  <druglike>
1

>  <lip_druglike>
1

>  <lip_violation>
0

>  <logS>
-3.54724

$$$$
