NS-014429098-0000
  MOE2022           3D

 19 20  0  0  0  0  0  0  0  0999 V2000
    4.1030   -1.0710    0.0500 N   0  0  0  0  0  0  0  0  0  0  0  0
    5.3090   -4.4520   -0.0540 N   0  0  0  0  0  0  0  0  0  0  0  0
    3.9820   -2.3960    0.0440 C   0  0  0  0  0  0  0  0  0  0  0  0
    5.1920   -3.0720   -0.0290 N   0  0  0  0  0  0  0  0  0  0  0  0
    6.4450   -5.0520   -0.1280 C   0  0  0  0  0  0  0  0  0  0  0  0
    2.9780   -0.3520    0.1180 C   0  0  0  0  0  0  0  0  0  0  0  0
    6.4990   -6.5140   -0.1190 C   0  0  0  0  0  0  0  0  0  0  0  0
    7.6730   -7.2140    0.2330 C   0  0  0  0  0  0  0  0  0  0  0  0
    5.3640   -7.2750   -0.4630 C   0  0  0  0  0  0  0  0  0  0  0  0
    3.1280    1.3730    0.1260 Cl  0  0  0  0  0  0  0  0  0  0  0  0
    6.5740   -9.3240   -0.1280 C   0  0  0  0  0  0  0  0  0  0  0  0
    5.4000   -8.6640   -0.4690 C   0  0  0  0  0  0  0  0  0  0  0  0
    7.7140   -8.6040    0.2270 C   0  0  0  0  0  0  0  0  0  0  0  0
    6.5540  -10.6990   -0.1560 O   0  0  0  0  0  0  0  0  0  0  0  0
    1.5910   -2.3200    0.1760 C   0  0  0  0  0  0  0  0  0  0  0  0
    2.7570   -3.0670    0.1050 C   0  0  0  0  0  0  0  0  0  0  0  0
    1.7080   -0.9370    0.1820 C   0  0  0  0  0  0  0  0  0  0  0  0
    7.7400   -4.2530   -0.2080 C   0  0  0  0  0  0  0  0  0  0  0  0
    7.6810  -11.5500    0.1540 C   0  0  0  0  0  0  0  0  0  0  0  0
  1  3  1  0  0  0  0
  1  6  2  0  0  0  0
  2  4  1  0  0  0  0
  2  5  2  0  0  0  0
  3  4  1  0  0  0  0
  3 16  2  0  0  0  0
  5  7  1  0  0  0  0
  5 18  1  0  0  0  0
  6 10  1  0  0  0  0
  6 17  1  0  0  0  0
  7  8  1  0  0  0  0
  7  9  2  0  0  0  0
  8 13  2  0  0  0  0
  9 12  1  0  0  0  0
 11 12  2  0  0  0  0
 11 13  1  0  0  0  0
 11 14  1  0  0  0  0
 14 19  1  0  0  0  0
 15 16  1  0  0  0  0
 15 17  2  0  0  0  0
M  END
>  <NScode>
NS-014429098-0000

>  <a_acc>
3

>  <a_don>
1

>  <chiral>
0

>  <opr_nrot>
4

>  <Weight>
275.73898

>  <druglike>
1

>  <lip_druglike>
1

>  <lip_violation>
0

>  <logS>
-3.4621201

$$$$
