NS-019953666-0000
  MOE2022           3D

 22 24  0  0  0  0  0  0  0  0999 V2000
    1.7200   -3.9330   -0.7490 C   0  0  0  0  0  0  0  0  0  0  0  0
    0.8940   -5.3450   -2.1530 N   0  0  0  0  0  0  0  0  0  0  0  0
    1.3860    2.6220    0.7650 C   0  0  0  0  0  0  0  0  0  0  0  0
    0.4350    2.4590   -0.1960 N   0  0  0  0  0  0  0  0  0  0  0  0
    1.4980   -6.1040   -1.2020 N   0  0  0  0  0  0  0  0  0  0  0  0
    2.1880    0.2860    0.1050 N   0  0  0  0  0  0  0  0  0  0  0  0
   -1.5510    2.5190   -1.2590 N   0  0  0  0  0  0  0  0  0  0  0  0
   -0.7310    3.1720   -0.4370 C   0  0  0  0  0  0  0  0  0  0  0  0
    1.9940   -5.2410   -0.3580 C   0  0  0  0  0  0  0  0  0  0  0  0
    2.1300   -2.6650   -0.0290 C   0  0  0  0  0  0  0  0  0  0  0  0
    1.0150   -4.0250   -1.9000 C   0  0  0  0  0  0  0  0  0  0  0  0
    2.5320    1.6180    0.7150 C   0  0  0  0  0  0  0  0  0  0  0  0
    1.3080    3.4990    1.6010 O   0  0  0  0  0  0  0  0  0  0  0  0
    0.9090   -1.8260    0.3680 C   0  0  0  0  0  0  0  0  0  0  0  0
    3.0640   -1.8080   -0.8930 C   0  0  0  0  0  0  0  0  0  0  0  0
    1.3170   -0.4950    1.0110 C   0  0  0  0  0  0  0  0  0  0  0  0
    3.4090   -0.4750   -0.2140 C   0  0  0  0  0  0  0  0  0  0  0  0
   -2.7150    3.0890   -1.5840 C   0  0  0  0  0  0  0  0  0  0  0  0
   -3.0940    4.3430   -1.0930 C   0  0  0  0  0  0  0  0  0  0  0  0
   -1.0300    4.4350    0.0920 C   0  0  0  0  0  0  0  0  0  0  0  0
   -4.6140    5.0380   -1.5430 Cl  0  0  0  0  0  0  0  0  0  0  0  0
   -2.2360    5.0330   -0.2390 C   0  0  0  0  0  0  0  0  0  0  0  0
  1  9  1  0  0  0  0
  1 10  1  0  0  0  0
  1 11  2  0  0  0  0
  2  5  1  0  0  0  0
  2 11  1  0  0  0  0
  3  4  1  0  0  0  0
  3 12  1  0  0  0  0
  3 13  2  0  0  0  0
  4  8  1  0  0  0  0
  5  9  2  0  0  0  0
  6 12  1  0  0  0  0
  6 16  1  0  0  0  0
  6 17  1  0  0  0  0
  7  8  1  0  0  0  0
  7 18  2  0  0  0  0
  8 20  2  0  0  0  0
 10 14  1  0  0  0  0
 10 15  1  0  0  0  0
 14 16  1  0  0  0  0
 15 17  1  0  0  0  0
 18 19  1  0  0  0  0
 19 21  1  0  0  0  0
 19 22  2  0  0  0  0
 20 22  1  0  0  0  0
M  END
>  <NScode>
NS-019953666-0000

>  <a_acc>
5

>  <a_don>
3

>  <chiral>
0

>  <opr_nrot>
6

>  <Weight>
319.79599

>  <druglike>
1

>  <lip_druglike>
1

>  <lip_violation>
0

>  <logS>
-1.96462

$$$$
