NS-024085032-0000N-(4-bromophenyl)-2-[(8-fluoro-5H-pyrimido[5,4-b]indol-4-yl)...
  MOE2022           3D

 24 26  0  0  0  0  0  0  0  0999 V2000
   -3.2700   -0.2240    0.0490 N   0  0  0  0  0  0  0  0  0  0  0  0
   -4.4940   -0.8730    0.3690 C   0  0  0  0  0  0  0  0  0  0  0  0
   -1.9760   -0.6990    0.2170 C   0  0  0  0  0  0  0  0  0  0  0  0
    1.6460    0.3590   -0.1280 C   0  0  0  0  0  0  0  0  0  0  0  0
   -3.5780    1.1060   -0.5130 C   0  0  0  0  0  0  0  0  0  0  0  0
    6.4430   -0.2430    0.0050 C   0  0  0  0  0  0  0  0  0  0  0  0
    5.1410   -0.7150   -0.0380 C   0  0  0  0  0  0  0  0  0  0  0  0
    2.7850   -0.3260    0.1760 N   0  0  0  0  0  0  0  0  0  0  0  0
    0.5310   -0.3900   -0.0030 N   0  0  0  0  0  0  0  0  0  0  0  0
   -5.5660   -0.0560    0.0490 C   0  0  0  0  0  0  0  0  0  0  0  0
    4.1030    0.1830    0.2070 C   0  0  0  0  0  0  0  0  0  0  0  0
   -0.8060    0.2000   -0.1780 C   0  0  0  0  0  0  0  0  0  0  0  0
    1.6010    1.5260   -0.4910 O   0  0  0  0  0  0  0  0  0  0  0  0
    6.7550    1.0880    0.2860 C   0  0  0  0  0  0  0  0  0  0  0  0
   -1.7770   -1.8090    0.6780 O   0  0  0  0  0  0  0  0  0  0  0  0
   -5.1070    1.2470   -0.5330 C   0  0  0  0  0  0  0  0  0  0  0  0
    5.7030    1.9710    0.5330 C   0  0  0  0  0  0  0  0  0  0  0  0
    7.4460   -1.1240   -0.2380 F   0  0  0  0  0  0  0  0  0  0  0  0
    4.3820    1.5250    0.4980 C   0  0  0  0  0  0  0  0  0  0  0  0
   -4.6940   -2.1370    0.9270 C   0  0  0  0  0  0  0  0  0  0  0  0
   -6.8680   -0.4830    0.2790 C   0  0  0  0  0  0  0  0  0  0  0  0
    8.1930    1.5660    0.3200 C   0  0  0  0  0  0  0  0  0  0  0  0
   -6.0000   -2.5660    1.1580 C   0  0  0  0  0  0  0  0  0  0  0  0
   -7.0830   -1.7440    0.8360 C   0  0  0  0  0  0  0  0  0  0  0  0
  1  2  1  0  0  0  0
  1  3  1  0  0  0  0
  1  5  1  0  0  0  0
  2 10  2  0  0  0  0
  2 20  1  0  0  0  0
  3 12  1  0  0  0  0
  3 15  2  0  0  0  0
  4  8  1  0  0  0  0
  4  9  1  0  0  0  0
  4 13  2  0  0  0  0
  5 16  1  0  0  0  0
  6  7  2  0  0  0  0
  6 14  1  0  0  0  0
  6 18  1  0  0  0  0
  7 11  1  0  0  0  0
  8 11  1  0  0  0  0
  9 12  1  0  0  0  0
 10 16  1  0  0  0  0
 10 21  1  0  0  0  0
 11 19  2  0  0  0  0
 14 17  2  0  0  0  0
 14 22  1  0  0  0  0
 17 19  1  0  0  0  0
 20 23  2  0  0  0  0
 21 24  2  0  0  0  0
 23 24  1  0  0  0  0
M  END
>  <NScode>
NS-024085032-0000

>  <a_acc>
2

>  <a_don>
2

>  <chiral>
0

>  <opr_nrot>
3

>  <Weight>
327.35898

>  <druglike>
1

>  <lip_druglike>
1

>  <lip_violation>
0

>  <logS>
-3.9579501

$$$$
