NS-022330987-0000
  MOE2022           3D

 27 30  0  0  0  0  0  0  0  0999 V2000
    7.8010   -5.3860   -0.0260 C   0  0  0  0  0  0  0  0  0  0  0  0
    7.0110   -4.2830   -0.2210 C   0  0  0  0  0  0  0  0  0  0  0  0
    7.5960   -3.0240   -0.3970 N   0  0  0  0  0  0  0  0  0  0  0  0
    8.9940   -2.8660   -0.2610 C   0  0  0  0  0  0  0  0  0  0  0  0
    9.8490   -4.0460   -0.1100 C   0  0  0  0  0  0  0  0  0  0  0  0
    9.2390   -5.3160    0.0310 C   0  0  0  0  0  0  0  0  0  0  0  0
    6.9250   -6.5310    0.0890 C   0  0  0  0  0  0  0  0  0  0  0  0
    5.5950   -4.6570   -0.2150 C   0  0  0  0  0  0  0  0  0  0  0  0
    5.5600   -6.0440   -0.0340 C   0  0  0  0  0  0  0  0  0  0  0  0
   11.2630   -3.9740   -0.0930 C   0  0  0  0  0  0  0  0  0  0  0  0
   10.0430   -6.4580    0.2190 C   0  0  0  0  0  0  0  0  0  0  0  0
    9.3980   -1.6990   -0.2660 O   0  0  0  0  0  0  0  0  0  0  0  0
    7.2300   -7.7020    0.2560 O   0  0  0  0  0  0  0  0  0  0  0  0
   12.0380   -5.1290    0.0640 C   0  0  0  0  0  0  0  0  0  0  0  0
   11.4240   -6.3640    0.2380 C   0  0  0  0  0  0  0  0  0  0  0  0
    6.7940   -1.8280   -0.7120 C   0  0  0  0  0  0  0  0  0  0  0  0
   11.9050   -2.7640   -0.2200 O   0  0  0  0  0  0  0  0  0  0  0  0
    4.3880   -3.9580   -0.3260 C   0  0  0  0  0  0  0  0  0  0  0  0
    4.3600   -6.7450    0.0120 C   0  0  0  0  0  0  0  0  0  0  0  0
   13.4230   -5.1320    0.0600 O   0  0  0  0  0  0  0  0  0  0  0  0
    6.2650   -1.1020    0.5350 C   0  0  0  0  0  0  0  0  0  0  0  0
    4.8840    0.6400    1.3830 O   0  0  0  0  0  0  0  0  0  0  0  0
    5.4560    0.1480    0.1910 C   0  0  0  0  0  0  0  0  0  0  0  0
   12.2520   -2.0580    0.9920 C   0  0  0  0  0  0  0  0  0  0  0  0
   14.2050   -4.3980   -0.9140 C   0  0  0  0  0  0  0  0  0  0  0  0
    3.1790   -4.6570   -0.2790 C   0  0  0  0  0  0  0  0  0  0  0  0
    3.1620   -6.0420   -0.1140 C   0  0  0  0  0  0  0  0  0  0  0  0
  1  2  2  0  0  0  0
  1  6  1  0  0  0  0
  1  7  1  0  0  0  0
  2  3  1  0  0  0  0
  2  8  1  0  0  0  0
  3  4  1  0  0  0  0
  3 16  1  0  0  0  0
  4  5  1  0  0  0  0
  4 12  2  0  0  0  0
  5  6  2  0  0  0  0
  5 10  1  0  0  0  0
  6 11  1  0  0  0  0
  7  9  1  0  0  0  0
  7 13  2  0  0  0  0
  8  9  2  0  0  0  0
  8 18  1  0  0  0  0
  9 19  1  0  0  0  0
 10 14  2  0  0  0  0
 10 17  1  0  0  0  0
 11 15  2  0  0  0  0
 14 15  1  0  0  0  0
 14 20  1  0  0  0  0
 16 21  1  0  0  0  0
 17 24  1  0  0  0  0
 18 26  2  0  0  0  0
 19 27  2  0  0  0  0
 20 25  1  0  0  0  0
 21 23  1  0  0  0  0
 22 23  1  0  0  0  0
 26 27  1  0  0  0  0
M  END
>  <NScode>
NS-022330987-0000

>  <a_acc>
5

>  <a_don>
1

>  <chiral>
0

>  <opr_nrot>
5

>  <Weight>
365.38498

>  <druglike>
1

>  <lip_druglike>
1

>  <lip_violation>
0

>  <logS>
-4.4500198

$$$$
