NS-042279141-0000
  MOE2022           3D

 18 18  0  0  1  0  0  0  0  0999 V2000
    0.2260   -0.0050   -1.6730 C   0  0  0  0  0  0  0  0  0  0  0  0
    0.1380   -0.8070   -0.3590 C   0  0  3  0  0  0  0  0  0  0  0  0
    1.3300   -1.7770   -0.1760 C   0  0  0  0  0  0  0  0  0  0  0  0
    2.7010   -1.0930   -0.0210 C   0  0  0  0  0  0  0  0  0  0  0  0
    3.7940   -2.1250    0.2620 C   0  0  0  0  0  0  0  0  0  0  0  0
    5.0180   -1.4430    0.4210 O   0  0  0  0  0  0  0  0  0  0  0  0
   -1.1680   -1.5030   -0.2400 N   0  0  0  0  0  0  0  0  0  0  0  0
   -1.4220   -2.6030   -0.9580 N   0  0  0  0  0  0  0  0  0  0  0  0
   -2.6340   -3.0060   -0.6890 N   0  0  0  0  0  0  0  0  0  0  0  0
   -3.1560   -2.1500    0.2080 C   0  0  0  0  0  0  0  0  0  0  0  0
   -4.5700   -2.2820    0.7570 C   0  0  0  0  0  0  0  0  0  0  0  0
   -5.2360   -3.5800    0.5140 C   0  0  0  0  0  0  0  0  0  0  0  0
   -5.7720   -4.5680    0.3460 N   0  0  0  0  0  0  0  0  0  0  0  0
   -2.2460   -1.1910    0.4930 C   0  0  0  0  0  0  0  0  0  0  0  0
   -2.2830    0.0160    1.3940 C   0  0  0  0  0  0  0  0  0  0  0  0
   -2.0050    1.1410    0.7310 F   0  0  0  0  0  0  0  0  0  0  0  0
   -3.4810    0.1910    1.9610 F   0  0  0  0  0  0  0  0  0  0  0  0
   -1.3960   -0.0830    2.3860 F   0  0  0  0  0  0  0  0  0  0  0  0
  1  2  1  0  0  0  0
  2  3  1  0  0  0  0
  2  7  1  0  0  0  0
  3  4  1  0  0  0  0
  4  5  1  0  0  0  0
  5  6  1  0  0  0  0
  7  8  1  0  0  0  0
  7 14  1  0  0  0  0
  8  9  2  0  0  0  0
  9 10  1  0  0  0  0
 10 11  1  0  0  0  0
 10 14  2  0  0  0  0
 11 12  1  0  0  0  0
 12 13  3  0  0  0  0
 14 15  1  0  0  0  0
 15 16  1  0  0  0  0
 15 17  1  0  0  0  0
 15 18  1  0  0  0  0
M  END
>  <NScode>
NS-042279141-0000

>  <a_acc>
4

>  <a_don>
1

>  <chiral>
1

>  <opr_nrot>
6

>  <Weight>
262.23499

>  <druglike>
1

>  <lip_druglike>
1

>  <lip_violation>
0

>  <logS>
-1.53819

$$$$
