NS-050134000-0000
  MOE2022           3D

 24 26  0  0  0  0  0  0  0  0999 V2000
    1.8300    4.4240    1.4610 C   0  0  0  0  0  0  0  0  0  0  0  0
    0.6240    3.7910    0.7890 C   0  0  0  0  0  0  0  0  0  0  0  0
    0.2430    2.5070    1.1470 C   0  0  0  0  0  0  0  0  0  0  0  0
   -0.8530    1.9130    0.5210 C   0  0  0  0  0  0  0  0  0  0  0  0
   -1.2370    0.6450    0.8810 N   0  0  0  0  0  0  0  0  0  0  0  0
   -2.0700   -0.1790    0.0070 C   0  0  0  0  0  0  0  0  0  0  0  0
   -1.5850   -1.6080   -0.0160 C   0  0  0  0  0  0  0  0  0  0  0  0
   -0.6360   -2.2090   -0.7470 C   0  0  0  0  0  0  0  0  0  0  0  0
   -0.5990   -3.5400   -0.3270 C   0  0  0  0  0  0  0  0  0  0  0  0
   -1.4910   -3.6990    0.6100 N   0  0  0  0  0  0  0  0  0  0  0  0
   -2.0930   -2.5240    0.8060 O   0  0  0  0  0  0  0  0  0  0  0  0
    0.2790   -4.6030   -0.8260 C   0  0  0  0  0  0  0  0  0  0  0  0
    1.3450   -4.3220   -1.6960 C   0  0  0  0  0  0  0  0  0  0  0  0
    2.1720   -5.3380   -2.1660 C   0  0  0  0  0  0  0  0  0  0  0  0
    1.9520   -6.6540   -1.7760 C   0  0  0  0  0  0  0  0  0  0  0  0
    0.9020   -6.9530   -0.9140 C   0  0  0  0  0  0  0  0  0  0  0  0
    0.0760   -5.9380   -0.4440 C   0  0  0  0  0  0  0  0  0  0  0  0
   -1.5590    2.5300   -0.4200 N   0  0  0  0  0  0  0  0  0  0  0  0
   -1.2050    3.7640   -0.7770 C   0  0  0  0  0  0  0  0  0  0  0  0
   -0.1320    4.4450   -0.2010 C   0  0  0  0  0  0  0  0  0  0  0  0
    0.1960    6.1100   -0.7920 S   0  0  0  0  0  0  0  0  0  0  0  0
   -0.5600    6.3220   -1.9720 O   0  0  0  0  0  0  0  0  0  0  0  0
    1.5980    6.3070   -0.8660 O   0  0  0  0  0  0  0  0  0  0  0  0
   -0.3990    7.0750    0.3720 N   0  0  0  0  0  0  0  0  0  0  0  0
  1  2  1  0  0  0  0
  2  3  1  0  0  0  0
  2 20  2  0  0  0  0
  3  4  2  0  0  0  0
  4  5  1  0  0  0  0
  4 18  1  0  0  0  0
  5  6  1  0  0  0  0
  6  7  1  0  0  0  0
  7  8  2  0  0  0  0
  7 11  1  0  0  0  0
  8  9  1  0  0  0  0
  9 10  2  0  0  0  0
  9 12  1  0  0  0  0
 10 11  1  0  0  0  0
 12 13  1  0  0  0  0
 12 17  2  0  0  0  0
 13 14  2  0  0  0  0
 14 15  1  0  0  0  0
 15 16  2  0  0  0  0
 16 17  1  0  0  0  0
 18 19  2  0  0  0  0
 19 20  1  0  0  0  0
 20 21  1  0  0  0  0
 21 22  2  0  0  0  0
 21 23  2  0  0  0  0
 21 24  1  0  0  0  0
M  END
>  <NScode>
NS-050134000-0000

>  <a_acc>
4

>  <a_don>
2

>  <chiral>
0

>  <opr_nrot>
5

>  <Weight>
344.39499

>  <druglike>
1

>  <lip_druglike>
1

>  <lip_violation>
0

>  <logS>
-3.58389

$$$$
