NS-023429532-0000
  MOE2022           3D

 26 28  0  0  1  0  0  0  0  0999 V2000
    0.7030   -0.8370   -0.7950 C   0  0  0  0  0  0  0  0  0  0  0  0
   -0.5960   -1.4960   -0.3830 C   0  0  0  0  0  0  0  0  0  0  0  0
   -1.0300   -2.4790   -1.1740 N   0  0  0  0  0  0  0  0  0  0  0  0
   -2.1760   -3.1400   -0.9080 C   0  0  0  0  0  0  0  0  0  0  0  0
   -2.9220   -2.8030    0.2250 C   0  0  0  0  0  0  0  0  0  0  0  0
   -2.4900   -1.7930    1.0710 C   0  0  0  0  0  0  0  0  0  0  0  0
   -1.3100   -1.1150    0.7660 C   0  0  0  0  0  0  0  0  0  0  0  0
   -0.8480   -0.0540    1.6540 C   0  0  0  0  0  0  0  0  0  0  0  0
   -0.5680   -0.2460    2.8340 O   0  0  0  0  0  0  0  0  0  0  0  0
   -0.7690    1.2130    1.1760 N   0  0  0  0  0  0  0  0  0  0  0  0
    0.0640    2.2260    1.7750 C   0  0  3  0  0  0  0  0  0  0  0  0
   -0.2610    3.5900    1.1430 C   0  0  0  0  0  0  0  0  0  0  0  0
    0.6670    3.7080   -0.0960 C   0  0  3  0  0  0  0  0  0  0  0  0
   -0.0020    3.2790   -1.3990 C   0  0  0  0  0  0  0  0  0  0  0  0
   -0.7700    2.2860   -1.3790 O   0  5  0  0  0  0  0  0  0  0  0  0
    0.2320    3.9650   -2.4160 O   0  0  0  0  0  0  0  0  0  0  0  0
    1.8310    2.8270    0.3010 C   0  0  0  0  0  0  0  0  0  0  0  0
    3.0980    2.7710   -0.2640 C   0  0  0  0  0  0  0  0  0  0  0  0
    4.0400    1.8880    0.2640 C   0  0  0  0  0  0  0  0  0  0  0  0
    3.7060    1.0700    1.3460 C   0  0  0  0  0  0  0  0  0  0  0  0
    2.4280    1.1290    1.9010 C   0  0  0  0  0  0  0  0  0  0  0  0
    1.4980    2.0140    1.3660 C   0  0  0  0  0  0  0  0  0  0  0  0
   -2.6820   -4.2650   -1.8400 C   0  0  0  0  0  0  0  0  0  0  0  0
   -3.8610   -3.9500   -2.4210 F   0  0  0  0  0  0  0  0  0  0  0  0
   -2.9100   -5.4130   -1.1620 F   0  0  0  0  0  0  0  0  0  0  0  0
   -1.8400   -4.5910   -2.8470 F   0  0  0  0  0  0  0  0  0  0  0  0
  1  2  1  0  0  0  0
  2  3  1  0  0  0  0
  2  7  2  0  0  0  0
  3  4  2  0  0  0  0
  4  5  1  0  0  0  0
  4 23  1  0  0  0  0
  5  6  2  0  0  0  0
  6  7  1  0  0  0  0
  7  8  1  0  0  0  0
  8  9  2  0  0  0  0
  8 10  1  0  0  0  0
 10 11  1  0  0  0  0
 11 12  1  0  0  0  0
 11 22  1  0  0  0  0
 12 13  1  0  0  0  0
 13 14  1  0  0  0  0
 13 17  1  0  0  0  0
 14 15  1  0  0  0  0
 14 16  2  0  0  0  0
 17 18  1  0  0  0  0
 17 22  2  0  0  0  0
 18 19  2  0  0  0  0
 19 20  1  0  0  0  0
 20 21  2  0  0  0  0
 21 22  1  0  0  0  0
 23 24  1  0  0  0  0
 23 25  1  0  0  0  0
 23 26  1  0  0  0  0
M  CHG  1  15  -1
M  END
>  <NScode>
NS-023429532-0000

>  <a_acc>
3

>  <a_don>
3

>  <chiral>
2

>  <opr_nrot>
3

>  <Weight>
364.323

>  <druglike>
1

>  <lip_druglike>
1

>  <lip_violation>
0

>  <logS>
-3.81967

$$$$
