NS-017586096-0000
  MOE2022           3D

 25 26  0  0  1  0  0  0  0  0999 V2000
   -1.0260    1.8100   -1.6060 C   0  0  0  0  0  0  0  0  0  0  0  0
   -1.9340    2.3720   -0.6100 C   0  0  0  0  0  0  0  0  0  0  0  0
    0.6920   -1.1470    0.0020 C   0  0  0  0  0  0  0  0  0  0  0  0
    0.1150   -2.0760    0.8290 N   0  0  0  0  0  0  0  0  0  0  0  0
   -0.1490    0.8240   -1.2880 N   0  0  0  0  0  0  0  0  0  0  0  0
    0.3850   -3.4280    0.9820 C   0  0  0  0  0  0  0  0  0  0  0  0
    0.1300    0.2800    0.0530 C   0  0  3  0  0  0  0  0  0  0  0  0
   -0.3400   -3.9370    1.9730 N   0  0  0  0  0  0  0  0  0  0  0  0
   -1.7420    3.6590   -0.0780 C   0  0  0  0  0  0  0  0  0  0  0  0
   -1.0050    2.1510   -2.7750 O   0  0  0  0  0  0  0  0  0  0  0  0
    1.6180   -1.4480   -0.7240 O   0  0  0  0  0  0  0  0  0  0  0  0
    1.2750   -4.1910    0.2160 C   0  0  0  0  0  0  0  0  0  0  0  0
   -0.2940    4.7660   -0.6110 Br  0  0  0  0  0  0  0  0  0  0  0  0
    1.0240    1.2280    0.8770 C   0  0  0  0  0  0  0  0  0  0  0  0
   -0.2070   -5.2340    2.2530 C   0  0  0  0  0  0  0  0  0  0  0  0
    3.3460    2.6980    1.2430 S   0  0  0  0  0  0  0  0  0  0  0  0
   -3.0240    1.6070   -0.1700 C   0  0  0  0  0  0  0  0  0  0  0  0
    1.4160   -5.5400    0.4990 C   0  0  0  0  0  0  0  0  0  0  0  0
    2.3450    1.6070    0.2020 C   0  0  0  0  0  0  0  0  0  0  0  0
   -2.6240    4.1500    0.8820 C   0  0  0  0  0  0  0  0  0  0  0  0
    0.6580   -6.0610    1.5420 C   0  0  0  0  0  0  0  0  0  0  0  0
    4.7360    3.0160    0.1230 C   0  0  0  0  0  0  0  0  0  0  0  0
    2.3690   -6.4140   -0.2850 C   0  0  0  0  0  0  0  0  0  0  0  0
   -3.8970    2.1050    0.7900 C   0  0  0  0  0  0  0  0  0  0  0  0
   -3.6960    3.3770    1.3180 C   0  0  0  0  0  0  0  0  0  0  0  0
  1  2  1  0  0  0  0
  1  5  1  0  0  0  0
  1 10  2  0  0  0  0
  2  9  2  0  0  0  0
  2 17  1  0  0  0  0
  3  4  1  0  0  0  0
  3  7  1  0  0  0  0
  3 11  2  0  0  0  0
  4  6  1  0  0  0  0
  5  7  1  0  0  0  0
  6  8  2  0  0  0  0
  6 12  1  0  0  0  0
  7 14  1  0  0  0  0
  8 15  1  0  0  0  0
  9 13  1  0  0  0  0
  9 20  1  0  0  0  0
 12 18  2  0  0  0  0
 14 19  1  0  0  0  0
 15 21  2  0  0  0  0
 16 19  1  0  0  0  0
 16 22  1  0  0  0  0
 17 24  2  0  0  0  0
 18 21  1  0  0  0  0
 18 23  1  0  0  0  0
 20 25  2  0  0  0  0
 24 25  1  0  0  0  0
M  END
>  <NScode>
NS-017586096-0000

>  <a_acc>
3

>  <a_don>
2

>  <chiral>
1

>  <opr_nrot>
7

>  <Weight>
422.34698

>  <druglike>
1

>  <lip_druglike>
1

>  <lip_violation>
0

>  <logS>
-5.3385201

$$$$
