NS-012591796-0000
  MOE2022           3D

 26 29  0  0  0  0  0  0  0  0999 V2000
   -3.2940   -2.7980    0.3190 C   0  0  0  0  0  0  0  0  0  0  0  0
   -2.6710   -1.6540    0.2190 N   0  0  0  0  0  0  0  0  0  0  0  0
   -2.4100   -3.8420    0.2440 N   0  0  0  0  0  0  0  0  0  0  0  0
    5.8390   -1.5370    0.0260 C   0  0  0  0  0  0  0  0  0  0  0  0
   -4.7870   -3.1050    0.4900 C   0  0  0  0  0  0  0  0  0  0  0  0
   -1.3360   -1.9630    0.0730 C   0  0  0  0  0  0  0  0  0  0  0  0
    6.0120   -2.9410    0.0670 C   0  0  0  0  0  0  0  0  0  0  0  0
    8.0260   -2.0080    0.0040 N   0  0  0  0  0  0  0  0  0  0  0  0
    2.2150   -0.8260   -0.3580 C   0  0  0  0  0  0  0  0  0  0  0  0
    7.1070   -0.9690   -0.0140 C   0  0  0  0  0  0  0  0  0  0  0  0
    3.4400   -1.2970    0.0770 N   0  0  0  0  0  0  0  0  0  0  0  0
    4.7160   -0.6790    0.0140 C   0  0  0  0  0  0  0  0  0  0  0  0
   -1.1640   -3.3320    0.0890 C   0  0  0  0  0  0  0  0  0  0  0  0
    7.3440   -3.2050    0.0550 C   0  0  0  0  0  0  0  0  0  0  0  0
    1.0510   -1.7010   -0.2070 C   0  0  0  0  0  0  0  0  0  0  0  0
   -0.2210   -1.1360   -0.0800 C   0  0  0  0  0  0  0  0  0  0  0  0
    2.1420    0.2940   -0.8450 O   0  0  0  0  0  0  0  0  0  0  0  0
    0.0860   -3.9470   -0.0450 C   0  0  0  0  0  0  0  0  0  0  0  0
    1.1890   -3.1240   -0.1960 C   0  0  0  0  0  0  0  0  0  0  0  0
   -4.9990   -3.9240    1.5380 F   0  0  0  0  0  0  0  0  0  0  0  0
   -5.2820   -3.7520   -0.5800 F   0  0  0  0  0  0  0  0  0  0  0  0
   -5.5560   -2.0210    0.6830 F   0  0  0  0  0  0  0  0  0  0  0  0
    7.3180    0.4180   -0.0630 C   0  0  0  0  0  0  0  0  0  0  0  0
    9.4690   -1.8620   -0.0250 C   0  0  0  0  0  0  0  0  0  0  0  0
    4.9020    0.7010   -0.0250 C   0  0  0  0  0  0  0  0  0  0  0  0
    6.2050    1.2440   -0.0680 C   0  0  0  0  0  0  0  0  0  0  0  0
  1  2  2  0  0  0  0
  1  3  1  0  0  0  0
  1  5  1  0  0  0  0
  2  6  1  0  0  0  0
  3 13  1  0  0  0  0
  4  7  1  0  0  0  0
  4 10  2  0  0  0  0
  4 12  1  0  0  0  0
  5 20  1  0  0  0  0
  5 21  1  0  0  0  0
  5 22  1  0  0  0  0
  6 13  1  0  0  0  0
  6 16  2  0  0  0  0
  7 14  2  0  0  0  0
  8 10  1  0  0  0  0
  8 14  1  0  0  0  0
  8 24  1  0  0  0  0
  9 11  1  0  0  0  0
  9 15  1  0  0  0  0
  9 17  2  0  0  0  0
 10 23  1  0  0  0  0
 11 12  1  0  0  0  0
 12 25  2  0  0  0  0
 13 18  2  0  0  0  0
 15 16  1  0  0  0  0
 15 19  2  0  0  0  0
 18 19  1  0  0  0  0
 23 26  2  0  0  0  0
 25 26  1  0  0  0  0
M  END
>  <NScode>
NS-012591796-0000

>  <a_acc>
3

>  <a_don>
3

>  <chiral>
0

>  <opr_nrot>
2

>  <Weight>
358.323

>  <druglike>
1

>  <lip_druglike>
1

>  <lip_violation>
0

>  <logS>
-4.8468499

$$$$
