NS-022258278-0000
  MOE2022           3D

 14 15  0  0  0  0  0  0  0  0999 V2000
    2.2070    3.0460    0.0530 C   0  0  0  0  0  0  0  0  0  0  0  0
    3.3800    3.8070   -0.0810 C   0  0  0  0  0  0  0  0  0  0  0  0
    2.2090    1.5860    0.0590 C   0  0  0  0  0  0  0  0  0  0  0  0
    3.3700    5.2070   -0.0640 C   0  0  0  0  0  0  0  0  0  0  0  0
    1.2970    0.8420   -0.5330 N   0  0  0  0  0  0  0  0  0  0  0  0
    0.9850    3.7370    0.1760 C   0  0  0  0  0  0  0  0  0  0  0  0
    3.4120    0.6710    0.9080 S   0  0  0  0  0  0  0  0  0  0  0  0
    2.1320    5.8480    0.0640 C   0  0  0  0  0  0  0  0  0  0  0  0
    1.5390   -0.4800   -0.3390 C   0  0  0  0  0  0  0  0  0  0  0  0
    2.6340   -0.7650    0.4120 C   0  0  0  0  0  0  0  0  0  0  0  0
    0.9480    5.1310    0.1820 C   0  0  0  0  0  0  0  0  0  0  0  0
    4.5650    5.9520   -0.1760 N   0  0  0  0  0  0  0  0  0  0  0  0
    4.5750    3.1880   -0.2670 F   0  0  0  0  0  0  0  0  0  0  0  0
    2.0720    7.1990    0.0640 F   0  0  0  0  0  0  0  0  0  0  0  0
  1  2  2  0  0  0  0
  1  3  1  0  0  0  0
  1  6  1  0  0  0  0
  2  4  1  0  0  0  0
  2 13  1  0  0  0  0
  3  5  2  0  0  0  0
  3  7  1  0  0  0  0
  4  8  2  0  0  0  0
  4 12  1  0  0  0  0
  5  9  1  0  0  0  0
  6 11  2  0  0  0  0
  7 10  1  0  0  0  0
  8 11  1  0  0  0  0
  8 14  1  0  0  0  0
  9 10  2  0  0  0  0
M  END
>  <NScode>
NS-022258278-0000

>  <a_acc>
1

>  <a_don>
1

>  <chiral>
0

>  <opr_nrot>
1

>  <Weight>
212.22299

>  <druglike>
1

>  <lip_druglike>
1

>  <lip_violation>
0

>  <logS>
-3.2510099

$$$$
