NS-013644811-0000
  MOE2022           3D

 24 26  0  0  0  0  0  0  0  0999 V2000
   -0.5320    2.7590   -0.0250 C   0  0  0  0  0  0  0  0  0  0  0  0
    0.1230    1.5360   -0.0010 C   0  0  0  0  0  0  0  0  0  0  0  0
    0.5530    4.1110   -0.0890 S   0  0  0  0  0  0  0  0  0  0  0  0
    1.5290    1.7320   -0.0360 C   0  0  0  0  0  0  0  0  0  0  0  0
   -1.9430    2.8870    0.0040 N   0  0  0  0  0  0  0  0  0  0  0  0
    1.8980    3.0240   -0.0830 C   0  0  0  0  0  0  0  0  0  0  0  0
   -2.7420    4.0130   -0.0470 C   0  0  0  0  0  0  0  0  0  0  0  0
   -0.5500    0.2570    0.0500 C   0  0  0  0  0  0  0  0  0  0  0  0
   -4.2010    3.8290   -0.0220 C   0  0  0  0  0  0  0  0  0  0  0  0
   -2.2200    5.1180   -0.0980 O   0  0  0  0  0  0  0  0  0  0  0  0
   -1.7730    0.1040    0.0800 O   0  0  0  0  0  0  0  0  0  0  0  0
   -4.8030    2.5780   -0.2400 C   0  0  0  0  0  0  0  0  0  0  0  0
    0.2070   -0.8710    0.0660 O   0  0  0  0  0  0  0  0  0  0  0  0
    2.7420    0.8440   -0.0340 C   0  0  0  0  0  0  0  0  0  0  0  0
   -6.1870    2.4540   -0.1980 C   0  0  0  0  0  0  0  0  0  0  0  0
    3.3740    3.2470   -0.1200 C   0  0  0  0  0  0  0  0  0  0  0  0
   -6.7070    1.1990   -0.4160 O   0  0  0  0  0  0  0  0  0  0  0  0
   -5.0300    4.9360    0.2260 C   0  0  0  0  0  0  0  0  0  0  0  0
    3.9590    1.8110   -0.0920 C   0  0  0  0  0  0  0  0  0  0  0  0
   -6.4160    4.8020    0.2640 C   0  0  0  0  0  0  0  0  0  0  0  0
   -7.0020    3.5590    0.0540 C   0  0  0  0  0  0  0  0  0  0  0  0
   -0.3800   -2.1910    0.1200 C   0  0  0  0  0  0  0  0  0  0  0  0
   -8.1150    0.8680   -0.3990 C   0  0  0  0  0  0  0  0  0  0  0  0
    0.6950   -3.2730    0.1210 C   0  0  0  0  0  0  0  0  0  0  0  0
  1  2  2  0  0  0  0
  1  3  1  0  0  0  0
  1  5  1  0  0  0  0
  2  4  1  0  0  0  0
  2  8  1  0  0  0  0
  3  6  1  0  0  0  0
  4  6  2  0  0  0  0
  4 14  1  0  0  0  0
  5  7  1  0  0  0  0
  6 16  1  0  0  0  0
  7  9  1  0  0  0  0
  7 10  2  0  0  0  0
  8 11  2  0  0  0  0
  8 13  1  0  0  0  0
  9 12  2  0  0  0  0
  9 18  1  0  0  0  0
 12 15  1  0  0  0  0
 13 22  1  0  0  0  0
 14 19  1  0  0  0  0
 15 17  1  0  0  0  0
 15 21  2  0  0  0  0
 16 19  1  0  0  0  0
 17 23  1  0  0  0  0
 18 20  2  0  0  0  0
 20 21  1  0  0  0  0
 22 24  1  0  0  0  0
M  END
>  <NScode>
NS-013644811-0000

>  <a_acc>
3

>  <a_don>
1

>  <chiral>
0

>  <opr_nrot>
5

>  <Weight>
345.41901

>  <druglike>
1

>  <lip_druglike>
1

>  <lip_violation>
0

>  <logS>
-4.6527901

$$$$
