NS-017910933-0000
  MOE2022           3D

 25 27  0  0  0  0  0  0  0  0999 V2000
   -4.4040   -1.1320    0.4700 C   0  0  0  0  0  0  0  0  0  0  0  0
   -4.5950   -0.6750    2.6050 N   0  0  0  0  0  0  0  0  0  0  0  0
   -4.9160   -1.9560    2.3980 O   0  0  0  0  0  0  0  0  0  0  0  0
    3.8230    1.5180    0.3030 N   0  0  0  0  0  0  0  0  0  0  0  0
   -4.8010   -2.2480    1.1030 C   0  0  0  0  0  0  0  0  0  0  0  0
   -4.2870   -0.1660    1.4650 C   0  0  0  0  0  0  0  0  0  0  0  0
    2.7650    0.6990   -0.1070 C   0  0  0  0  0  0  0  0  0  0  0  0
    2.3360   -0.2190    0.7660 N   0  0  0  0  0  0  0  0  0  0  0  0
   -4.1210   -0.9910   -1.0130 C   0  0  0  0  0  0  0  0  0  0  0  0
   -2.8470   -1.6820   -1.4450 C   0  0  0  0  0  0  0  0  0  0  0  0
   -1.7140   -1.2810   -0.8690 N   0  0  0  0  0  0  0  0  0  0  0  0
    4.5500    1.1990    1.5470 C   0  0  0  0  0  0  0  0  0  0  0  0
    4.0120    2.8700   -0.2540 C   0  0  0  0  0  0  0  0  0  0  0  0
    0.7110   -0.9560   -0.8210 C   0  0  0  0  0  0  0  0  0  0  0  0
    2.1900    0.8290   -1.3790 C   0  0  0  0  0  0  0  0  0  0  0  0
   -2.8500   -2.5850   -2.2730 O   0  0  0  0  0  0  0  0  0  0  0  0
    1.3350   -1.0260    0.4240 C   0  0  0  0  0  0  0  0  0  0  0  0
   -0.4260   -1.8890   -1.1620 C   0  0  0  0  0  0  0  0  0  0  0  0
    1.1460   -0.0040   -1.7390 C   0  0  0  0  0  0  0  0  0  0  0  0
    5.8800    1.9610    1.6390 C   0  0  0  0  0  0  0  0  0  0  0  0
    4.4320    3.8880    0.8180 C   0  0  0  0  0  0  0  0  0  0  0  0
    5.7100    3.4940    1.5860 C   0  0  0  0  0  0  0  0  0  0  0  0
   -5.0980   -3.6430    0.6060 C   0  0  0  0  0  0  0  0  0  0  0  0
   -3.8660    1.2740    1.3030 C   0  0  0  0  0  0  0  0  0  0  0  0
    6.9560    4.1360    0.9590 C   0  0  0  0  0  0  0  0  0  0  0  0
  1  5  2  0  0  0  0
  1  6  1  0  0  0  0
  1  9  1  0  0  0  0
  2  3  1  0  0  0  0
  2  6  2  0  0  0  0
  3  5  1  0  0  0  0
  4  7  1  0  0  0  0
  4 12  1  0  0  0  0
  4 13  1  0  0  0  0
  5 23  1  0  0  0  0
  6 24  1  0  0  0  0
  7  8  1  0  0  0  0
  7 15  2  0  0  0  0
  8 17  2  0  0  0  0
  9 10  1  0  0  0  0
 10 11  1  0  0  0  0
 10 16  2  0  0  0  0
 11 18  1  0  0  0  0
 12 20  1  0  0  0  0
 13 21  1  0  0  0  0
 14 17  1  0  0  0  0
 14 18  1  0  0  0  0
 14 19  2  0  0  0  0
 15 19  1  0  0  0  0
 20 22  1  0  0  0  0
 21 22  1  0  0  0  0
 22 25  1  0  0  0  0
M  END
>  <NScode>
NS-017910933-0000

>  <a_acc>
3

>  <a_don>
1

>  <chiral>
0

>  <opr_nrot>
7

>  <Weight>
342.44299

>  <druglike>
1

>  <lip_druglike>
1

>  <lip_violation>
0

>  <logS>
-2.88341

$$$$
