NS-013212835-0000
  MOE2022           3D

 19 20  0  0  1  0  0  0  0  0999 V2000
   -1.0270    1.5780    0.7120 C   0  0  0  0  0  0  0  0  0  0  0  0
    0.1700    0.8230    1.0550 C   0  0  0  0  0  0  0  0  0  0  0  0
    0.5160   -0.2950    0.3090 N   0  0  0  0  0  0  0  0  0  0  0  0
   -2.2490    1.3160    1.3320 C   0  0  0  0  0  0  0  0  0  0  0  0
   -3.3870    2.0410    1.0020 C   0  0  0  0  0  0  0  0  0  0  0  0
   -0.9830    2.5970   -0.2540 C   0  0  0  0  0  0  0  0  0  0  0  0
    0.9010    1.1710    1.9750 O   0  0  0  0  0  0  0  0  0  0  0  0
   -3.3500    3.0530    0.0430 C   0  0  0  0  0  0  0  0  0  0  0  0
    1.7710   -1.0310    0.5880 C   0  0  3  0  0  0  0  0  0  0  0  0
   -2.1300    3.3230   -0.5850 C   0  0  0  0  0  0  0  0  0  0  0  0
   -2.3350    0.3230    2.2640 F   0  0  0  0  0  0  0  0  0  0  0  0
   -4.5630    1.7570    1.6190 F   0  0  0  0  0  0  0  0  0  0  0  0
   -0.3460   -0.7620   -0.7980 C   0  0  0  0  0  0  0  0  0  0  0  0
   -4.5960    3.8400   -0.3140 C   0  0  0  0  0  0  0  0  0  0  0  0
    2.8950   -0.6370   -0.3990 C   0  0  0  0  0  0  0  0  0  0  0  0
    1.5450   -2.5640    0.6540 C   0  0  0  0  0  0  0  0  0  0  0  0
   -0.0280   -2.1860   -1.2790 C   0  0  0  0  0  0  0  0  0  0  0  0
    3.2570    0.8560   -0.3870 C   0  0  0  0  0  0  0  0  0  0  0  0
    0.3160   -3.1040   -0.1040 C   0  0  0  0  0  0  0  0  0  0  0  0
  1  2  1  0  0  0  0
  1  4  2  0  0  0  0
  1  6  1  0  0  0  0
  2  3  1  0  0  0  0
  2  7  2  0  0  0  0
  3  9  1  0  0  0  0
  3 13  1  0  0  0  0
  4  5  1  0  0  0  0
  4 11  1  0  0  0  0
  5  8  2  0  0  0  0
  5 12  1  0  0  0  0
  6 10  2  0  0  0  0
  8 10  1  0  0  0  0
  8 14  1  0  0  0  0
  9 15  1  0  0  0  0
  9 16  1  0  0  0  0
 13 17  1  0  0  0  0
 15 18  1  0  0  0  0
 16 19  1  0  0  0  0
 17 19  1  0  0  0  0
M  END
>  <NScode>
NS-013212835-0000

>  <a_acc>
1

>  <a_don>
0

>  <chiral>
1

>  <opr_nrot>
4

>  <Weight>
267.319

>  <druglike>
1

>  <lip_druglike>
1

>  <lip_violation>
0

>  <logS>
-3.45858

$$$$
