NS-000535217-0000
  MOE2022           3D

 12 12  0  0  0  0  0  0  0  0999 V2000
   -0.0780   -3.0200    0.8780 N   0  0  0  0  0  0  0  0  0  0  0  0
   -0.3200   -4.1360    0.1810 C   0  0  0  0  0  0  0  0  0  0  0  0
    2.1080   -2.9150   -0.0840 C   0  0  0  0  0  0  0  0  0  0  0  0
    1.1060   -2.4230    0.7540 C   0  0  0  0  0  0  0  0  0  0  0  0
   -1.8690   -4.8910    0.3650 Cl  0  0  0  0  0  0  0  0  0  0  0  0
    0.6330   -4.6930   -0.6750 C   0  0  0  0  0  0  0  0  0  0  0  0
    1.8650   -4.0760   -0.8130 C   0  0  0  0  0  0  0  0  0  0  0  0
    4.8360   -3.2710    0.2820 S   0  0  0  0  0  0  0  0  0  0  0  0
    8.7610   -2.0190    0.2070 N   0  3  0  0  0  0  0  0  0  0  0  0
    3.4350   -2.1970   -0.2030 C   0  0  0  0  0  0  0  0  0  0  0  0
    6.2510   -2.1520    0.0330 C   0  0  0  0  0  0  0  0  0  0  0  0
    7.5590   -2.8740    0.3850 C   0  0  0  0  0  0  0  0  0  0  0  0
  1  2  1  0  0  0  0
  1  4  2  0  0  0  0
  2  5  1  0  0  0  0
  2  6  2  0  0  0  0
  3  4  1  0  0  0  0
  3  7  2  0  0  0  0
  3 10  1  0  0  0  0
  6  7  1  0  0  0  0
  8 10  1  0  0  0  0
  8 11  1  0  0  0  0
  9 12  1  0  0  0  0
 11 12  1  0  0  0  0
M  CHG  1   9   1
M  END
>  <NScode>
NS-000535217-0000

>  <a_acc>
2

>  <a_don>
1

>  <chiral>
0

>  <opr_nrot>
4

>  <Weight>
202.709

>  <druglike>
1

>  <lip_druglike>
1

>  <lip_violation>
0

>  <logS>
-1.82909

$$$$
