NS-014146614-0000
  MOE2022           3D

 21 22  0  0  0  0  0  0  0  0999 V2000
   -1.8960   -1.0300    0.3980 S   0  0  0  0  0  0  0  0  0  0  0  0
   -2.4980   -2.7130    0.4580 C   0  0  0  0  0  0  0  0  0  0  0  0
   -2.5360   -3.6320    1.9350 S   0  0  0  0  0  0  0  0  0  0  0  0
   -0.3390   -1.2070    0.0160 N   0  0  0  0  0  0  0  0  0  0  0  0
   -3.2330   -4.9800    1.1090 C   0  0  0  0  0  0  0  0  0  0  0  0
    0.5770   -0.2390   -0.1480 C   0  0  0  0  0  0  0  0  0  0  0  0
   -3.0110   -3.4350   -0.5850 C   0  0  0  0  0  0  0  0  0  0  0  0
    0.2590    1.1380    0.0050 C   0  0  0  0  0  0  0  0  0  0  0  0
    1.2250    2.1230   -0.1620 C   0  0  0  0  0  0  0  0  0  0  0  0
   -3.4280   -4.7280   -0.2210 C   0  0  0  0  0  0  0  0  0  0  0  0
    1.9220   -0.5680   -0.4850 C   0  0  0  0  0  0  0  0  0  0  0  0
   -2.5950   -0.3580   -0.6650 O   0  0  0  0  0  0  0  0  0  0  0  0
   -2.0230   -0.4640    1.7130 O   0  5  0  0  0  0  0  0  0  0  0  0
    2.5490    1.7710   -0.4790 C   0  0  0  0  0  0  0  0  0  0  0  0
    2.8760    0.4280   -0.6450 C   0  0  0  0  0  0  0  0  0  0  0  0
   -3.6060   -6.4340    1.9550 Cl  0  0  0  0  0  0  0  0  0  0  0  0
    0.8720    3.4720   -0.0230 O   0  0  0  0  0  0  0  0  0  0  0  0
    3.6060    2.6890   -0.6490 O   0  0  0  0  0  0  0  0  0  0  0  0
    2.3120   -2.0200   -0.6680 C   0  0  0  0  0  0  0  0  0  0  0  0
    3.6830    3.9600    0.0270 C   0  0  0  0  0  0  0  0  0  0  0  0
   -0.4760    3.9280    0.2390 C   0  0  0  0  0  0  0  0  0  0  0  0
  1  2  1  0  0  0  0
  1  4  2  0  0  0  0
  1 12  2  0  0  0  0
  1 13  1  0  0  0  0
  2  3  1  0  0  0  0
  2  7  2  0  0  0  0
  3  5  1  0  0  0  0
  4  6  1  0  0  0  0
  5 10  2  0  0  0  0
  5 16  1  0  0  0  0
  6  8  2  0  0  0  0
  6 11  1  0  0  0  0
  7 10  1  0  0  0  0
  8  9  1  0  0  0  0
  9 14  2  0  0  0  0
  9 17  1  0  0  0  0
 11 15  2  0  0  0  0
 11 19  1  0  0  0  0
 14 15  1  0  0  0  0
 14 18  1  0  0  0  0
 17 21  1  0  0  0  0
 18 20  1  0  0  0  0
M  CHG  1  13  -1
M  END
>  <NScode>
NS-014146614-0000

>  <a_acc>
4

>  <a_don>
1

>  <chiral>
0

>  <opr_nrot>
4

>  <Weight>
347.84299

>  <druglike>
1

>  <lip_druglike>
1

>  <lip_violation>
0

>  <logS>
-4.3185101

$$$$
