NS-023891658-00004-{[4-(morpholin-4-ylcarbonyl)piperidin-1-yl]sulfonyl}-2,1,3...
  MOE2022           3D

 26 29  0  0  0  0  0  0  0  0999 V2000
    0.8210   -1.7170   -1.3870 S   0  0  0  0  0  0  0  0  0  0  0  0
    0.3710   -3.2760   -0.6200 C   0  0  0  0  0  0  0  0  0  0  0  0
   -0.7870   -3.3610    0.2110 C   0  0  0  0  0  0  0  0  0  0  0  0
    1.7540   -0.9210   -0.2610 N   0  0  0  0  0  0  0  0  0  0  0  0
   -1.1510   -4.5710    0.7800 C   0  0  0  0  0  0  0  0  0  0  0  0
   -1.6370   -2.4590    0.5960 N   0  0  0  0  0  0  0  0  0  0  0  0
    0.1380    3.0640    0.3880 C   0  0  0  0  0  0  0  0  0  0  0  0
   -2.4670   -3.1270    1.3540 O   0  0  0  0  0  0  0  0  0  0  0  0
   -2.2150   -4.4000    1.4970 N   0  0  0  0  0  0  0  0  0  0  0  0
   -1.1710    3.3760    0.2670 N   0  0  0  0  0  0  0  0  0  0  0  0
    1.1020   -4.4230   -0.8400 C   0  0  0  0  0  0  0  0  0  0  0  0
    1.6330   -2.0050   -2.5180 O   0  0  0  0  0  0  0  0  0  0  0  0
   -0.3550   -0.9590   -1.6410 O   0  0  0  0  0  0  0  0  0  0  0  0
    0.6410    1.6630   -0.0120 C   0  0  0  0  0  0  0  0  0  0  0  0
    0.7230   -5.6710   -0.2490 C   0  0  0  0  0  0  0  0  0  0  0  0
   -0.3860   -5.7490    0.5480 C   0  0  0  0  0  0  0  0  0  0  0  0
    2.6030    0.1910   -0.7410 C   0  0  0  0  0  0  0  0  0  0  0  0
    1.1980   -0.6240    1.0620 C   0  0  0  0  0  0  0  0  0  0  0  0
    0.9380    3.8690    0.8590 O   0  0  0  0  0  0  0  0  0  0  0  0
    0.2490    0.5870    1.0310 C   0  0  0  0  0  0  0  0  0  0  0  0
    2.1650    1.5800   -0.2300 C   0  0  0  0  0  0  0  0  0  0  0  0
   -3.8440    4.3100   -0.3410 O   0  0  0  0  0  0  0  0  0  0  0  0
   -1.6780    4.6740    0.7680 C   0  0  0  0  0  0  0  0  0  0  0  0
   -2.2470    2.4450   -0.1600 C   0  0  0  0  0  0  0  0  0  0  0  0
   -3.3460    3.1400   -0.9890 C   0  0  0  0  0  0  0  0  0  0  0  0
   -2.8040    5.2590   -0.1070 C   0  0  0  0  0  0  0  0  0  0  0  0
  1  2  1  0  0  0  0
  1  4  1  0  0  0  0
  1 12  2  0  0  0  0
  1 13  2  0  0  0  0
  2  3  1  0  0  0  0
  2 11  2  0  0  0  0
  3  5  1  0  0  0  0
  3  6  2  0  0  0  0
  4 17  1  0  0  0  0
  4 18  1  0  0  0  0
  5  9  2  0  0  0  0
  5 16  1  0  0  0  0
  6  8  1  0  0  0  0
  7 10  1  0  0  0  0
  7 14  1  0  0  0  0
  7 19  2  0  0  0  0
  8  9  1  0  0  0  0
 10 23  1  0  0  0  0
 10 24  1  0  0  0  0
 11 15  1  0  0  0  0
 14 20  1  0  0  0  0
 14 21  1  0  0  0  0
 15 16  2  0  0  0  0
 17 21  1  0  0  0  0
 18 20  1  0  0  0  0
 22 25  1  0  0  0  0
 22 26  1  0  0  0  0
 23 26  1  0  0  0  0
 24 25  1  0  0  0  0
M  END
>  <NScode>
NS-023891658-0000

>  <a_acc>
6

>  <a_don>
0

>  <chiral>
0

>  <opr_nrot>
6

>  <Weight>
380.42499

>  <druglike>
1

>  <lip_druglike>
1

>  <lip_violation>
0

>  <logS>
-2.4200101

$$$$
