NS-000549053-0000
  MOE2022           3D

  6  5  0  0  1  0  0  0  0  0999 V2000
    2.4120    2.0840    0.5390 Br  0  0  0  0  0  0  0  0  0  0  0  0
    2.7510   -3.5190   -0.5250 Br  0  0  0  0  0  0  0  0  0  0  0  0
    2.2170   -0.7250    0.0150 C   0  0  0  0  0  0  0  0  0  0  0  0
    1.3570    0.4240    0.5700 C   0  0  3  0  0  0  0  0  0  0  0  0
    1.5500   -2.1050    0.1230 C   0  0  0  0  0  0  0  0  0  0  0  0
    0.0470    0.6590   -0.1980 C   0  0  0  0  0  0  0  0  0  0  0  0
  1  4  1  0  0  0  0
  2  5  1  0  0  0  0
  3  4  1  0  0  0  0
  3  5  1  0  0  0  0
  4  6  1  0  0  0  0
M  END
>  <NScode>
NS-000549053-0000

>  <a_acc>
0

>  <a_don>
0

>  <chiral>
1

>  <opr_nrot>
2

>  <Weight>
215.916

>  <druglike>
0

>  <lip_druglike>
1

>  <lip_violation>
0

>  <logS>
-2.3065801

$$$$
