NS-000540572-0000
  MOE2022           3D

 11 11  0  0  0  0  0  0  0  0999 V2000
    1.0780   -0.5250   -0.2730 C   0  0  0  0  0  0  0  0  0  0  0  0
    2.1380   -1.9680   -0.3740 S   0  0  0  0  0  0  0  0  0  0  0  0
    1.4460    0.7640    0.0100 C   0  0  0  0  0  0  0  0  0  0  0  0
   -0.6260   -0.6320   -0.5920 S   0  0  0  0  0  0  0  0  0  0  0  0
    0.3630    1.6550   -0.0180 C   0  0  0  0  0  0  0  0  0  0  0  0
   -0.8280    1.0700   -0.3350 C   0  0  0  0  0  0  0  0  0  0  0  0
    1.5610   -2.9010   -1.2700 O   0  0  0  0  0  0  0  0  0  0  0  0
    3.4620   -1.5310   -0.6340 O   0  0  0  0  0  0  0  0  0  0  0  0
    2.0910   -2.5990    1.1210 N   0  0  0  0  0  0  0  0  0  0  0  0
    0.5090    3.0340    0.2560 N   0  0  0  0  0  0  0  0  0  0  0  0
   -2.1860    1.7200   -0.4700 C   0  0  0  0  0  0  0  0  0  0  0  0
  1  2  1  0  0  0  0
  1  3  2  0  0  0  0
  1  4  1  0  0  0  0
  2  7  2  0  0  0  0
  2  8  2  0  0  0  0
  2  9  1  0  0  0  0
  3  5  1  0  0  0  0
  4  6  1  0  0  0  0
  5  6  2  0  0  0  0
  5 10  1  0  0  0  0
  6 11  1  0  0  0  0
M  END
>  <NScode>
NS-000540572-0000

>  <a_acc>
2

>  <a_don>
2

>  <chiral>
0

>  <opr_nrot>
1

>  <Weight>
192.263

>  <druglike>
0

>  <lip_druglike>
1

>  <lip_violation>
0

>  <logS>
-1.61077

$$$$
