NS-020288908-0000
  MOE2022           3D

 25 27  0  0  0  0  0  0  0  0999 V2000
   -2.8640    5.7280   -0.7500 C   0  0  0  0  0  0  0  0  0  0  0  0
   -3.2640    4.8260    0.3060 O   0  0  0  0  0  0  0  0  0  0  0  0
   -3.2580    3.4550    0.2110 C   0  0  0  0  0  0  0  0  0  0  0  0
   -3.6450    2.7390    1.3390 C   0  0  0  0  0  0  0  0  0  0  0  0
   -3.6520    1.3500    1.3030 C   0  0  0  0  0  0  0  0  0  0  0  0
   -3.2650    0.6580    0.1420 C   0  0  0  0  0  0  0  0  0  0  0  0
   -2.8950    1.4020   -0.9900 C   0  0  0  0  0  0  0  0  0  0  0  0
   -2.8850    2.7920   -0.9600 C   0  0  0  0  0  0  0  0  0  0  0  0
   -3.2540   -0.7980    0.1010 C   0  0  0  0  0  0  0  0  0  0  0  0
   -3.8360   -1.5370   -0.7730 N   0  0  0  0  0  0  0  0  0  0  0  0
   -3.5360   -2.8330   -0.4200 N   0  0  0  0  0  0  0  0  0  0  0  0
   -2.7270   -2.8950    0.6820 C   0  0  0  0  0  0  0  0  0  0  0  0
   -2.0430   -4.2570    1.3940 S   0  0  0  0  0  0  0  0  0  0  0  0
   -2.5700   -1.5820    1.0320 N   0  0  0  0  0  0  0  0  0  0  0  0
   -1.5240   -1.1360    1.9630 C   0  0  0  0  0  0  0  0  0  0  0  0
   -0.1640   -0.9400    1.3200 C   0  0  0  0  0  0  0  0  0  0  0  0
    0.2760    0.1650    1.0900 O   0  0  0  0  0  0  0  0  0  0  0  0
    0.5320   -2.0690    0.9830 N   0  0  0  0  0  0  0  0  0  0  0  0
    1.7740   -2.2030    0.3780 C   0  0  0  0  0  0  0  0  0  0  0  0
    2.5430   -1.1710   -0.1730 C   0  0  0  0  0  0  0  0  0  0  0  0
    3.7630   -1.4840   -0.7470 C   0  0  0  0  0  0  0  0  0  0  0  0
    4.1680   -2.8150   -0.7540 C   0  0  0  0  0  0  0  0  0  0  0  0
    5.4970   -3.1970   -1.3690 C   0  0  0  0  0  0  0  0  0  0  0  0
    3.3360   -3.7790   -0.1820 C   0  0  0  0  0  0  0  0  0  0  0  0
    2.1620   -3.4730    0.3700 N   0  0  0  0  0  0  0  0  0  0  0  0
  1  2  1  0  0  0  0
  2  3  1  0  0  0  0
  3  4  1  0  0  0  0
  3  8  2  0  0  0  0
  4  5  2  0  0  0  0
  5  6  1  0  0  0  0
  6  7  2  0  0  0  0
  6  9  1  0  0  0  0
  7  8  1  0  0  0  0
  9 10  2  0  0  0  0
  9 14  1  0  0  0  0
 10 11  1  0  0  0  0
 11 12  1  0  0  0  0
 12 13  2  0  0  0  0
 12 14  1  0  0  0  0
 14 15  1  0  0  0  0
 15 16  1  0  0  0  0
 16 17  2  0  0  0  0
 16 18  1  0  0  0  0
 18 19  1  0  0  0  0
 19 20  1  0  0  0  0
 19 25  2  0  0  0  0
 20 21  2  0  0  0  0
 21 22  1  0  0  0  0
 22 23  1  0  0  0  0
 22 24  2  0  0  0  0
 24 25  1  0  0  0  0
M  END
>  <NScode>
NS-020288908-0000

>  <a_acc>
5

>  <a_don>
1

>  <chiral>
0

>  <opr_nrot>
5

>  <Weight>
355.422

>  <druglike>
1

>  <lip_druglike>
1

>  <lip_violation>
0

>  <logS>
-5.4431701

$$$$
