NS-025011428-0000
  MOE2022           3D

 28 31  0  0  1  0  0  0  0  0999 V2000
   -4.9500    0.2090   -0.5640 C   0  0  0  0  0  0  0  0  0  0  0  0
   -3.4440    0.1350   -0.2750 C   0  0  3  0  0  0  0  0  0  0  0  0
   -2.7700   -0.3490   -1.4660 N   0  0  0  0  0  0  0  0  0  0  0  0
   -2.0140   -1.4250   -1.1800 C   0  0  0  0  0  0  0  0  0  0  0  0
   -1.2330   -1.9580   -1.9460 O   0  0  0  0  0  0  0  0  0  0  0  0
   -2.2360   -1.8300    0.1050 N   0  0  0  0  0  0  0  0  0  0  0  0
   -1.5680   -2.9810    0.7220 C   0  0  0  0  0  0  0  0  0  0  0  0
   -0.1100   -2.7530    1.0800 C   0  0  0  0  0  0  0  0  0  0  0  0
    0.2730   -2.7320    2.2320 O   0  0  0  0  0  0  0  0  0  0  0  0
    0.7610   -2.5410    0.0510 N   0  0  0  0  0  0  0  0  0  0  0  0
    2.1400   -2.3100    0.1260 C   0  0  0  0  0  0  0  0  0  0  0  0
    2.9650   -2.2440    1.2360 C   0  0  0  0  0  0  0  0  0  0  0  0
    4.2180   -1.9960    0.7580 C   0  0  0  0  0  0  0  0  0  0  0  0
    5.5210   -1.8100    1.3110 C   0  0  0  0  0  0  0  0  0  0  0  0
    6.5760   -1.5710    0.4760 C   0  0  0  0  0  0  0  0  0  0  0  0
    6.3690   -1.5100   -0.9390 C   0  0  0  0  0  0  0  0  0  0  0  0
    5.1200   -1.6880   -1.4700 C   0  0  0  0  0  0  0  0  0  0  0  0
    4.0530   -1.9300   -0.6130 N   0  0  0  0  0  0  0  0  0  0  0  0
    2.7620   -2.1250   -1.0070 N   0  0  0  0  0  0  0  0  0  0  0  0
   -3.0970   -0.9750    0.7230 C   0  0  0  0  0  0  0  0  0  0  0  0
   -3.4970   -1.1700    1.8560 O   0  0  0  0  0  0  0  0  0  0  0  0
   -2.9070    1.5010    0.1800 C   0  0  0  0  0  0  0  0  0  0  0  0
   -3.2540    1.9760    1.4550 C   0  0  0  0  0  0  0  0  0  0  0  0
   -2.7990    3.2120    1.9030 C   0  0  0  0  0  0  0  0  0  0  0  0
   -1.9960    3.9720    1.0670 C   0  0  0  0  0  0  0  0  0  0  0  0
   -1.5530    5.1750    1.4980 F   0  0  0  0  0  0  0  0  0  0  0  0
   -1.6330    3.5370   -0.1990 C   0  0  0  0  0  0  0  0  0  0  0  0
   -2.0920    2.2990   -0.6430 C   0  0  0  0  0  0  0  0  0  0  0  0
  1  2  1  0  0  0  0
  2  3  1  0  0  0  0
  2 20  1  0  0  0  0
  2 22  1  0  0  0  0
  3  4  1  0  0  0  0
  4  5  2  0  0  0  0
  4  6  1  0  0  0  0
  6  7  1  0  0  0  0
  6 20  1  0  0  0  0
  7  8  1  0  0  0  0
  8  9  2  0  0  0  0
  8 10  1  0  0  0  0
 10 11  1  0  0  0  0
 11 12  1  0  0  0  0
 11 19  2  0  0  0  0
 12 13  2  0  0  0  0
 13 14  1  0  0  0  0
 13 18  1  0  0  0  0
 14 15  2  0  0  0  0
 15 16  1  0  0  0  0
 16 17  2  0  0  0  0
 17 18  1  0  0  0  0
 18 19  1  0  0  0  0
 20 21  2  0  0  0  0
 22 23  1  0  0  0  0
 22 28  2  0  0  0  0
 23 24  2  0  0  0  0
 24 25  1  0  0  0  0
 25 26  1  0  0  0  0
 25 27  2  0  0  0  0
 27 28  1  0  0  0  0
M  END
>  <NScode>
NS-025011428-0000

>  <a_acc>
4

>  <a_don>
2

>  <chiral>
1

>  <opr_nrot>
4

>  <Weight>
381.367

>  <druglike>
1

>  <lip_druglike>
1

>  <lip_violation>
0

>  <logS>
-4.1160302

$$$$
