NS-017537940-0000
  MOE2022           3D

 24 26  0  0  0  0  0  0  0  0999 V2000
   -1.5170   -1.1210    0.4110 N   0  0  0  0  0  0  0  0  0  0  0  0
   -2.3630   -1.2720   -0.5910 C   0  0  0  0  0  0  0  0  0  0  0  0
   -1.8910   -2.5120   -1.7060 S   0  0  0  0  0  0  0  0  0  0  0  0
   -0.4720   -1.9810    0.3200 C   0  0  0  0  0  0  0  0  0  0  0  0
    0.6180   -1.9930    1.3670 C   0  0  0  0  0  0  0  0  0  0  0  0
   -0.5080   -2.8120   -0.7550 C   0  0  0  0  0  0  0  0  0  0  0  0
   -3.5930   -0.4960   -0.7780 C   0  0  0  0  0  0  0  0  0  0  0  0
    2.0000   -2.0730    0.7720 C   0  0  0  0  0  0  0  0  0  0  0  0
    4.4110    0.4850   -0.4600 C   0  0  0  0  0  0  0  0  0  0  0  0
   -4.0020    0.4250    0.2000 C   0  0  0  0  0  0  0  0  0  0  0  0
    5.7700    0.7870   -0.4130 C   0  0  0  0  0  0  0  0  0  0  0  0
    3.9160   -0.9160   -0.1590 C   0  0  0  0  0  0  0  0  0  0  0  0
    2.5980   -0.9180    0.4530 O   0  0  0  0  0  0  0  0  0  0  0  0
    2.5690   -3.1380    0.5310 O   0  0  0  0  0  0  0  0  0  0  0  0
    6.6620   -0.1840   -0.0870 F   0  0  0  0  0  0  0  0  0  0  0  0
   -5.1650    1.1740    0.0480 C   0  0  0  0  0  0  0  0  0  0  0  0
   -4.3960   -0.6430   -1.9210 C   0  0  0  0  0  0  0  0  0  0  0  0
   -5.5610    0.1000   -2.0730 C   0  0  0  0  0  0  0  0  0  0  0  0
    3.5270    1.5060   -0.8140 C   0  0  0  0  0  0  0  0  0  0  0  0
    6.2650    2.0540   -0.6930 C   0  0  0  0  0  0  0  0  0  0  0  0
   -5.9460    1.0060   -1.0910 C   0  0  0  0  0  0  0  0  0  0  0  0
   -5.5870    2.1500    1.1230 C   0  0  0  0  0  0  0  0  0  0  0  0
    4.0040    2.7860   -1.1000 C   0  0  0  0  0  0  0  0  0  0  0  0
    5.3700    3.0620   -1.0390 C   0  0  0  0  0  0  0  0  0  0  0  0
  1  2  2  0  0  0  0
  1  4  1  0  0  0  0
  2  3  1  0  0  0  0
  2  7  1  0  0  0  0
  3  6  1  0  0  0  0
  4  5  1  0  0  0  0
  4  6  2  0  0  0  0
  5  8  1  0  0  0  0
  7 10  2  0  0  0  0
  7 17  1  0  0  0  0
  8 13  1  0  0  0  0
  8 14  2  0  0  0  0
  9 11  2  0  0  0  0
  9 12  1  0  0  0  0
  9 19  1  0  0  0  0
 10 16  1  0  0  0  0
 11 15  1  0  0  0  0
 11 20  1  0  0  0  0
 12 13  1  0  0  0  0
 16 21  2  0  0  0  0
 16 22  1  0  0  0  0
 17 18  2  0  0  0  0
 18 21  1  0  0  0  0
 19 23  2  0  0  0  0
 20 24  2  0  0  0  0
 23 24  1  0  0  0  0
M  END
>  <NScode>
NS-017537940-0000

>  <a_acc>
2

>  <a_don>
0

>  <chiral>
0

>  <opr_nrot>
5

>  <Weight>
341.40601

>  <druglike>
1

>  <lip_druglike>
1

>  <lip_violation>
0

>  <logS>
-6.0730901

$$$$
