NS-008675407-0000
  MOE2022           3D

  7  6  0  0  1  0  0  0  0  0999 V2000
    2.2130    1.1700    0.2330 C   0  0  3  0  0  0  0  0  0  0  0  0
    1.4370    2.3620   -0.3740 C   0  0  3  0  0  0  0  0  0  0  0  0
    2.1630    3.6160   -0.1000 N   0  3  0  0  0  0  0  0  0  0  0  0
    3.5980    1.3890   -0.0080 O   0  0  0  0  0  0  0  0  0  0  0  0
    2.6370   -1.1810    0.2320 O   0  0  0  0  0  0  0  0  0  0  0  0
    1.8250   -0.1890   -0.3740 C   0  0  0  0  0  0  0  0  0  0  0  0
    0.0050    2.4750    0.1480 C   0  0  0  0  0  0  0  0  0  0  0  0
  1  2  1  0  0  0  0
  1  4  1  0  0  0  0
  1  6  1  0  0  0  0
  2  3  1  0  0  0  0
  2  7  1  0  0  0  0
  5  6  1  0  0  0  0
M  CHG  1   3   1
M  END
>  <NScode>
NS-008675407-0000

>  <a_acc>
3

>  <a_don>
3

>  <chiral>
2

>  <opr_nrot>
2

>  <Weight>
105.137

>  <druglike>
0

>  <lip_druglike>
1

>  <lip_violation>
0

>  <logS>
0.79597002

$$$$
