NS-014037056-0000
  MOE2022           3D

 22 24  0  0  0  0  0  0  0  0999 V2000
   -0.4610   -1.0510    1.9810 C   0  0  0  0  0  0  0  0  0  0  0  0
    0.1940   -2.1600    1.2700 C   0  0  0  0  0  0  0  0  0  0  0  0
    1.0410   -1.9790    0.1470 C   0  0  0  0  0  0  0  0  0  0  0  0
   -0.8020    0.0930    1.3220 N   0  0  0  0  0  0  0  0  0  0  0  0
   -0.7670   -1.1090    3.1670 O   0  0  0  0  0  0  0  0  0  0  0  0
    1.3890   -0.6640   -0.3740 C   0  0  0  0  0  0  0  0  0  0  0  0
   -1.3820    1.2480    1.9790 C   0  0  0  0  0  0  0  0  0  0  0  0
   -1.7120    2.3300    0.9750 C   0  0  0  0  0  0  0  0  0  0  0  0
   -0.0420   -3.4650    1.7300 C   0  0  0  0  0  0  0  0  0  0  0  0
    1.5850   -3.1000   -0.4890 C   0  0  0  0  0  0  0  0  0  0  0  0
    0.7710   -0.1750   -1.5300 C   0  0  0  0  0  0  0  0  0  0  0  0
    2.3340    0.1340    0.2790 C   0  0  0  0  0  0  0  0  0  0  0  0
   -3.0150    2.4830    0.5020 C   0  0  0  0  0  0  0  0  0  0  0  0
   -0.7060    3.1680    0.4970 C   0  0  0  0  0  0  0  0  0  0  0  0
    1.3240   -4.3830   -0.0240 C   0  0  0  0  0  0  0  0  0  0  0  0
    0.5130   -4.5650    1.0900 C   0  0  0  0  0  0  0  0  0  0  0  0
    2.6510    1.3960   -0.2110 C   0  0  0  0  0  0  0  0  0  0  0  0
    1.0840    1.0890   -2.0160 C   0  0  0  0  0  0  0  0  0  0  0  0
   -1.0000    4.1570   -0.4380 C   0  0  0  0  0  0  0  0  0  0  0  0
   -3.3100    3.4720   -0.4330 C   0  0  0  0  0  0  0  0  0  0  0  0
   -2.3030    4.3100   -0.9020 C   0  0  0  0  0  0  0  0  0  0  0  0
    2.0260    1.8750   -1.3590 C   0  0  0  0  0  0  0  0  0  0  0  0
  1  2  1  0  0  0  0
  1  4  1  0  0  0  0
  1  5  2  0  0  0  0
  2  3  2  0  0  0  0
  2  9  1  0  0  0  0
  3  6  1  0  0  0  0
  3 10  1  0  0  0  0
  4  7  1  0  0  0  0
  6 11  1  0  0  0  0
  6 12  2  0  0  0  0
  7  8  1  0  0  0  0
  8 13  1  0  0  0  0
  8 14  2  0  0  0  0
  9 16  2  0  0  0  0
 10 15  2  0  0  0  0
 11 18  2  0  0  0  0
 12 17  1  0  0  0  0
 13 20  2  0  0  0  0
 14 19  1  0  0  0  0
 15 16  1  0  0  0  0
 17 22  2  0  0  0  0
 18 22  1  0  0  0  0
 19 21  2  0  0  0  0
 20 21  1  0  0  0  0
M  END
>  <NScode>
NS-014037056-0000

>  <a_acc>
1

>  <a_don>
1

>  <chiral>
0

>  <opr_nrot>
4

>  <Weight>
287.362

>  <druglike>
1

>  <lip_druglike>
1

>  <lip_violation>
0

>  <logS>
-5.7252898

$$$$
