NS-005823154-0000
  MOE2022           3D

 21 22  0  0  0  0  0  0  0  0999 V2000
    0.8470    0.8740   -0.8720 C   0  0  0  0  0  0  0  0  0  0  0  0
    1.1430    2.6410   -1.1310 S   0  0  0  0  0  0  0  0  0  0  0  0
    1.3920    0.2270    0.2440 C   0  0  0  0  0  0  0  0  0  0  0  0
    0.0930    0.1230   -1.7840 C   0  0  0  0  0  0  0  0  0  0  0  0
    0.2570    3.4000   -0.0010 N   0  0  0  0  0  0  0  0  0  0  0  0
    0.6830    3.0010   -2.4350 O   0  0  0  0  0  0  0  0  0  0  0  0
    2.5230    2.8880   -0.8630 O   0  0  0  0  0  0  0  0  0  0  0  0
    1.1740   -1.1300    0.4590 C   0  0  0  0  0  0  0  0  0  0  0  0
   -0.1310   -1.2340   -1.5780 C   0  0  0  0  0  0  0  0  0  0  0  0
   -0.9930    3.2600    0.0290 C   0  0  0  0  0  0  0  0  0  0  0  0
    0.4020   -1.8550   -0.4500 C   0  0  0  0  0  0  0  0  0  0  0  0
   -1.7730    2.4590   -0.8120 N   0  0  0  0  0  0  0  0  0  0  0  0
   -1.6320    3.9680    1.0190 N   0  0  0  0  0  0  0  0  0  0  0  0
    0.1530   -3.2380   -0.2900 N   0  0  0  0  0  0  0  0  0  0  0  0
   -3.0440    2.3990   -0.6550 C   0  0  0  0  0  0  0  0  0  0  0  0
   -2.9940    3.9180    1.2100 C   0  0  0  0  0  0  0  0  0  0  0  0
   -0.0010   -3.9230    0.8880 C   0  0  0  0  0  0  0  0  0  0  0  0
   -3.7140    3.1300    0.3700 C   0  0  0  0  0  0  0  0  0  0  0  0
   -0.2350   -5.4120    0.7720 C   0  0  0  0  0  0  0  0  0  0  0  0
    0.0490   -3.3580    1.9580 O   0  0  0  0  0  0  0  0  0  0  0  0
    1.0100   -6.2240    0.3640 C   0  0  0  0  0  0  0  0  0  0  0  0
  1  2  1  0  0  0  0
  1  3  1  0  0  0  0
  1  4  2  0  0  0  0
  2  5  1  0  0  0  0
  2  6  2  0  0  0  0
  2  7  2  0  0  0  0
  3  8  2  0  0  0  0
  4  9  1  0  0  0  0
  5 10  2  0  0  0  0
  8 11  1  0  0  0  0
  9 11  2  0  0  0  0
 10 12  1  0  0  0  0
 10 13  1  0  0  0  0
 11 14  1  0  0  0  0
 12 15  2  0  0  0  0
 13 16  1  0  0  0  0
 14 17  1  0  0  0  0
 15 18  1  0  0  0  0
 16 18  2  0  0  0  0
 17 19  1  0  0  0  0
 17 20  2  0  0  0  0
 19 21  1  0  0  0  0
M  END
>  <NScode>
NS-005823154-0000

>  <a_acc>
5

>  <a_don>
2

>  <chiral>
0

>  <opr_nrot>
4

>  <Weight>
306.34601

>  <druglike>
1

>  <lip_druglike>
1

>  <lip_violation>
0

>  <logS>
-2.9625399

$$$$
