NS-012286308-0000
  MOE2022           3D

 28 31  0  0  1  0  0  0  0  0999 V2000
    7.4560   -0.0060    0.6500 N   0  0  0  0  0  0  0  0  0  0  0  0
    6.3220   -0.2540    1.3500 C   0  0  0  0  0  0  0  0  0  0  0  0
    7.2550   -2.8480    1.9200 S   0  0  0  0  0  0  0  0  0  0  0  0
    5.8770   -1.6720    1.6690 C   0  0  3  0  0  0  0  0  0  0  0  0
    4.8390   -2.2150    0.6710 C   0  0  0  0  0  0  0  0  0  0  0  0
    5.3390   -2.2960   -0.7540 C   0  0  0  0  0  0  0  0  0  0  0  0
    8.4070   -0.9700    0.2270 C   0  0  0  0  0  0  0  0  0  0  0  0
    8.4340   -2.2760    0.7610 C   0  0  0  0  0  0  0  0  0  0  0  0
    5.6950   -3.4660   -1.3430 N   0  0  0  0  0  0  0  0  0  0  0  0
    5.6840    0.7200    1.6910 O   0  0  0  0  0  0  0  0  0  0  0  0
    5.4680   -1.3110   -1.4420 O   0  0  0  0  0  0  0  0  0  0  0  0
    5.1770   -8.5810    0.7390 O   0  0  0  0  0  0  0  0  0  0  0  0
    5.5620   -4.7590   -0.8070 C   0  0  0  0  0  0  0  0  0  0  0  0
    5.3280   -7.3120    0.2150 C   0  0  0  0  0  0  0  0  0  0  0  0
    5.9040   -9.6890    0.3480 C   0  0  0  0  0  0  0  0  0  0  0  0
    4.2920   -5.2760   -0.5390 C   0  0  0  0  0  0  0  0  0  0  0  0
    6.7150   -5.5110   -0.5770 C   0  0  0  0  0  0  0  0  0  0  0  0
    6.5980   -6.7960   -0.0560 C   0  0  0  0  0  0  0  0  0  0  0  0
    4.1760   -6.5600   -0.0180 C   0  0  0  0  0  0  0  0  0  0  0  0
    9.3460   -0.5680   -0.7190 C   0  0  0  0  0  0  0  0  0  0  0  0
    9.4470   -3.1460    0.3500 C   0  0  0  0  0  0  0  0  0  0  0  0
    6.1340  -10.6810    1.2960 C   0  0  0  0  0  0  0  0  0  0  0  0
    6.3740   -9.8210   -0.9600 C   0  0  0  0  0  0  0  0  0  0  0  0
   10.3890   -2.7390   -0.5930 C   0  0  0  0  0  0  0  0  0  0  0  0
   10.3360   -1.4560   -1.1310 C   0  0  0  0  0  0  0  0  0  0  0  0
    7.0960  -10.9580   -1.3120 C   0  0  0  0  0  0  0  0  0  0  0  0
    6.8560  -11.8160    0.9360 C   0  0  0  0  0  0  0  0  0  0  0  0
    7.3380  -11.9520   -0.3650 C   0  0  0  0  0  0  0  0  0  0  0  0
  1  2  1  0  0  0  0
  1  7  1  0  0  0  0
  2  4  1  0  0  0  0
  2 10  2  0  0  0  0
  3  4  1  0  0  0  0
  3  8  1  0  0  0  0
  4  5  1  0  0  0  0
  5  6  1  0  0  0  0
  6  9  1  0  0  0  0
  6 11  2  0  0  0  0
  7  8  2  0  0  0  0
  7 20  1  0  0  0  0
  8 21  1  0  0  0  0
  9 13  1  0  0  0  0
 12 14  1  0  0  0  0
 12 15  1  0  0  0  0
 13 16  1  0  0  0  0
 13 17  2  0  0  0  0
 14 18  2  0  0  0  0
 14 19  1  0  0  0  0
 15 22  1  0  0  0  0
 15 23  2  0  0  0  0
 16 19  2  0  0  0  0
 17 18  1  0  0  0  0
 20 25  2  0  0  0  0
 21 24  2  0  0  0  0
 22 27  2  0  0  0  0
 23 26  1  0  0  0  0
 24 25  1  0  0  0  0
 26 28  2  0  0  0  0
 27 28  1  0  0  0  0
M  END
>  <NScode>
NS-012286308-0000

>  <a_acc>
2

>  <a_don>
2

>  <chiral>
1

>  <opr_nrot>
5

>  <Weight>
390.46298

>  <druglike>
1

>  <lip_druglike>
1

>  <lip_violation>
0

>  <logS>
-6.4182701

$$$$
