NS-019449727-0000
  MOE2022           3D

 27 29  0  0  0  0  0  0  0  0999 V2000
   -1.6530    0.5450    0.7440 N   0  0  0  0  0  0  0  0  0  0  0  0
   -0.9410   -0.5100    0.2010 C   0  0  0  0  0  0  0  0  0  0  0  0
   -0.7660    1.5300    1.1420 C   0  0  0  0  0  0  0  0  0  0  0  0
    0.4650   -0.1860    0.2800 C   0  0  0  0  0  0  0  0  0  0  0  0
    0.5700    1.0650    0.8580 C   0  0  0  0  0  0  0  0  0  0  0  0
    1.6000   -0.8930   -0.1120 C   0  0  0  0  0  0  0  0  0  0  0  0
    7.9040   -0.8770    0.1390 C   0  0  0  0  0  0  0  0  0  0  0  0
    4.0670   -1.0730   -0.3250 C   0  0  0  0  0  0  0  0  0  0  0  0
   -3.1080    0.6380    0.8110 C   0  0  0  0  0  0  0  0  0  0  0  0
    2.8710   -0.3270    0.0880 C   0  0  0  0  0  0  0  0  0  0  0  0
    1.8190    1.6540    1.0620 C   0  0  0  0  0  0  0  0  0  0  0  0
    5.2940   -0.7470    0.1860 N   0  0  0  0  0  0  0  0  0  0  0  0
   -1.4850   -1.5030   -0.2550 O   0  0  0  0  0  0  0  0  0  0  0  0
   -1.1310    2.5880    1.6300 O   0  0  0  0  0  0  0  0  0  0  0  0
    2.9630    0.9580    0.6750 C   0  0  0  0  0  0  0  0  0  0  0  0
    4.0300   -2.0070   -1.1120 O   0  0  0  0  0  0  0  0  0  0  0  0
    6.5310   -1.5250   -0.1760 C   0  0  0  0  0  0  0  0  0  0  0  0
    8.0240   -0.5780    1.4450 F   0  0  0  0  0  0  0  0  0  0  0  0
    8.0920    0.2710   -0.5340 F   0  0  0  0  0  0  0  0  0  0  0  0
    8.9290   -1.6850   -0.1710 F   0  0  0  0  0  0  0  0  0  0  0  0
   -3.7300    1.2540   -0.4470 C   0  0  0  0  0  0  0  0  0  0  0  0
   -5.2380    1.3530   -0.3470 C   0  0  0  0  0  0  0  0  0  0  0  0
   -5.8340    2.4960    0.2170 C   0  0  0  0  0  0  0  0  0  0  0  0
   -6.0470    0.2930   -0.8010 C   0  0  0  0  0  0  0  0  0  0  0  0
   -7.4470    0.3810   -0.6960 C   0  0  0  0  0  0  0  0  0  0  0  0
   -7.2340    2.5830    0.3210 C   0  0  0  0  0  0  0  0  0  0  0  0
   -8.0410    1.5260   -0.1360 C   0  0  0  0  0  0  0  0  0  0  0  0
  1  2  1  0  0  0  0
  1  3  1  0  0  0  0
  1  9  1  0  0  0  0
  2  4  1  0  0  0  0
  2 13  2  0  0  0  0
  3  5  1  0  0  0  0
  3 14  2  0  0  0  0
  4  5  1  0  0  0  0
  4  6  2  0  0  0  0
  5 11  2  0  0  0  0
  6 10  1  0  0  0  0
  7 17  1  0  0  0  0
  7 18  1  0  0  0  0
  7 19  1  0  0  0  0
  7 20  1  0  0  0  0
  8 10  1  0  0  0  0
  8 12  1  0  0  0  0
  8 16  2  0  0  0  0
  9 21  1  0  0  0  0
 10 15  2  0  0  0  0
 11 15  1  0  0  0  0
 12 17  1  0  0  0  0
 21 22  1  0  0  0  0
 22 23  1  0  0  0  0
 22 24  2  0  0  0  0
 23 26  2  0  0  0  0
 24 25  1  0  0  0  0
 25 27  2  0  0  0  0
 26 27  1  0  0  0  0
M  END
>  <NScode>
NS-019449727-0000

>  <a_acc>
3

>  <a_don>
1

>  <chiral>
0

>  <opr_nrot>
5

>  <Weight>
376.33398

>  <druglike>
1

>  <lip_druglike>
1

>  <lip_violation>
0

>  <logS>
-4.9932199

$$$$
