NS-006262212-0000
  MOE2022           3D

 14 14  0  0  0  0  0  0  0  0999 V2000
   -1.4760    0.2550    0.3490 C   0  0  0  0  0  0  0  0  0  0  0  0
   -0.5670   -0.2550   -0.5980 C   0  0  0  0  0  0  0  0  0  0  0  0
   -2.5260   -0.5130    0.8670 C   0  0  0  0  0  0  0  0  0  0  0  0
   -1.3590    1.6100    0.8390 N   0  3  0  0  0  0  0  0  0  0  0  0
   -0.7290   -1.5810   -1.0000 C   0  0  0  0  0  0  0  0  0  0  0  0
    0.5790    0.5450   -1.2130 C   0  0  0  0  0  0  0  0  0  0  0  0
   -2.6700   -1.8280    0.4450 C   0  0  0  0  0  0  0  0  0  0  0  0
   -2.3080    2.3710    0.7610 O   0  5  0  0  0  0  0  0  0  0  0  0
   -0.3130    1.9940    1.3360 O   0  0  0  0  0  0  0  0  0  0  0  0
   -1.7700   -2.3610   -0.4840 C   0  0  0  0  0  0  0  0  0  0  0  0
    1.9470    0.1150   -0.7280 C   0  0  0  0  0  0  0  0  0  0  0  0
   -1.9500   -4.0040   -1.0040 Cl  0  0  0  0  0  0  0  0  0  0  0  0
    2.4450    0.5150    0.6370 C   0  0  0  0  0  0  0  0  0  0  0  0
    2.6170   -0.6010   -1.4120 O   0  0  0  0  0  0  0  0  0  0  0  0
  1  2  2  0  0  0  0
  1  3  1  0  0  0  0
  1  4  1  0  0  0  0
  2  5  1  0  0  0  0
  2  6  1  0  0  0  0
  3  7  2  0  0  0  0
  4  8  1  0  0  0  0
  4  9  2  0  0  0  0
  5 10  2  0  0  0  0
  6 11  1  0  0  0  0
  7 10  1  0  0  0  0
 10 12  1  0  0  0  0
 11 13  1  0  0  0  0
 11 14  2  0  0  0  0
M  CHG  1   4   1
M  CHG  1   8  -1
M  END
>  <NScode>
NS-006262212-0000

>  <a_acc>
1

>  <a_don>
0

>  <chiral>
0

>  <opr_nrot>
3

>  <Weight>
213.62

>  <druglike>
1

>  <lip_druglike>
1

>  <lip_violation>
0

>  <logS>
-3.2831399

$$$$
