NS-017880682-0000
  MOE2022           3D

 23 25  0  0  1  0  0  0  0  0999 V2000
   -2.5290   -0.4070    0.7470 C   0  0  3  0  0  0  0  0  0  0  0  0
   -3.7530   -1.1280    0.2270 C   0  0  0  0  0  0  0  0  0  0  0  0
   -1.8350    0.4480   -0.3040 N   0  3  0  0  0  0  0  0  0  0  0  0
    0.7500   -0.9060    0.9960 C   0  0  0  0  0  0  0  0  0  0  0  0
    7.5240   -1.2840   -0.1490 N   0  0  0  0  0  0  0  0  0  0  0  0
    5.5980   -0.4410    0.4740 N   0  0  0  0  0  0  0  0  0  0  0  0
   -5.3060   -0.7750    0.9000 S   0  0  0  0  0  0  0  0  0  0  0  0
   -1.6040   -1.4280    1.4710 C   0  0  0  0  0  0  0  0  0  0  0  0
    6.6050   -1.3000    0.7690 C   0  0  0  0  0  0  0  0  0  0  0  0
   -0.2630   -0.9380    1.8890 N   0  0  0  0  0  0  0  0  0  0  0  0
    7.0930   -0.3810   -1.0710 C   0  0  0  0  0  0  0  0  0  0  0  0
    5.9040    0.1430   -0.6970 C   0  0  0  0  0  0  0  0  0  0  0  0
   -3.8360   -2.0800   -0.7540 C   0  0  0  0  0  0  0  0  0  0  0  0
   -6.0570   -1.9170   -0.1540 C   0  0  0  0  0  0  0  0  0  0  0  0
    0.5480   -0.9180   -0.2120 O   0  0  0  0  0  0  0  0  0  0  0  0
   -5.1500   -2.5280   -0.9700 C   0  0  0  0  0  0  0  0  0  0  0  0
    1.9750   -0.8170    1.5500 N   0  0  0  0  0  0  0  0  0  0  0  0
    3.1860   -1.0120    0.7360 C   0  0  0  0  0  0  0  0  0  0  0  0
    4.3950   -0.2280    1.2610 C   0  0  0  0  0  0  0  0  0  0  0  0
   -1.2640    1.7280    0.2220 C   0  0  0  0  0  0  0  0  0  0  0  0
   -2.6190    0.7960   -1.5470 C   0  0  0  0  0  0  0  0  0  0  0  0
   -2.4310    2.2870   -1.8290 C   0  0  0  0  0  0  0  0  0  0  0  0
   -1.2860    2.7400   -0.9180 C   0  0  0  0  0  0  0  0  0  0  0  0
  1  2  1  0  0  0  0
  1  3  1  0  0  0  0
  1  8  1  0  0  0  0
  2  7  1  0  0  0  0
  2 13  2  0  0  0  0
  3 20  1  0  0  0  0
  3 21  1  0  0  0  0
  4 10  1  0  0  0  0
  4 15  2  0  0  0  0
  4 17  1  0  0  0  0
  5  9  2  0  0  0  0
  5 11  1  0  0  0  0
  6  9  1  0  0  0  0
  6 12  1  0  0  0  0
  6 19  1  0  0  0  0
  7 14  1  0  0  0  0
  8 10  1  0  0  0  0
 11 12  2  0  0  0  0
 13 16  1  0  0  0  0
 14 16  2  0  0  0  0
 17 18  1  0  0  0  0
 18 19  1  0  0  0  0
 20 23  1  0  0  0  0
 21 22  1  0  0  0  0
 22 23  1  0  0  0  0
M  CHG  1   3   1
M  END
>  <NScode>
NS-017880682-0000

>  <a_acc>
3

>  <a_don>
2

>  <chiral>
1

>  <opr_nrot>
8

>  <Weight>
333.45999

>  <druglike>
1

>  <lip_druglike>
1

>  <lip_violation>
0

>  <logS>
-1.9217401

$$$$
