NS-009543060-0001
  MOE2022           3D

  9  9  0  0  0  0  0  0  0  0999 V2000
   -0.6180   -0.1890    0.1550 C   0  0  0  0  0  0  0  0  0  0  0  0
   -0.5540   -1.5950   -0.3870 C   0  0  0  0  0  0  0  0  0  0  0  0
    0.4110   -2.5380   -0.0190 C   0  0  0  0  0  0  0  0  0  0  0  0
    0.2290   -3.7190   -0.6640 C   0  0  0  0  0  0  0  0  0  0  0  0
    1.0190   -4.9980   -0.5480 C   0  0  0  0  0  0  0  0  0  0  0  0
    0.2090   -6.0760    0.1770 C   0  0  0  0  0  0  0  0  0  0  0  0
    0.9510   -7.3570    0.2970 N   0  3  0  0  0  0  0  0  0  0  0  0
   -1.1330   -3.5870   -1.7010 S   0  0  0  0  0  0  0  0  0  0  0  0
   -1.4230   -2.0200   -1.2550 N   0  0  0  0  0  0  0  0  0  0  0  0
  1  2  1  0  0  0  0
  2  3  1  0  0  0  0
  2  9  2  0  0  0  0
  3  4  2  0  0  0  0
  4  5  1  0  0  0  0
  4  8  1  0  0  0  0
  5  6  1  0  0  0  0
  6  7  1  0  0  0  0
  8  9  1  0  0  0  0
M  CHG  1   7   1
M  END
>  <NScode>
NS-009543060-0001

>  <a_acc>
2

>  <a_don>
1

>  <chiral>
0

>  <opr_nrot>
2

>  <Weight>
142.226

>  <druglike>
0

>  <lip_druglike>
1

>  <lip_violation>
0

>  <logS>
-0.27903

$$$$
