NS-021751416-0000
  MOE2022           3D

 16 17  0  0  1  0  0  0  0  0999 V2000
   -1.6020    5.1950    0.8710 F   0  0  0  0  0  0  0  0  0  0  0  0
   -1.2300    4.3520   -0.1350 C   0  0  0  0  0  0  0  0  0  0  0  0
   -1.1210    2.9050    0.3720 C   0  0  3  0  0  0  0  0  0  0  0  0
   -0.2250    2.0440   -0.5450 C   0  0  0  0  0  0  0  0  0  0  0  0
   -0.1850    0.6130   -0.1550 N   0  0  0  0  0  0  0  0  0  0  0  0
   -1.5210    0.0560    0.1680 C   0  0  0  0  0  0  0  0  0  0  0  0
   -2.3710    1.0080    1.0330 C   0  0  0  0  0  0  0  0  0  0  0  0
   -2.4230    2.3190    0.4760 O   0  0  0  0  0  0  0  0  0  0  0  0
    0.9600   -0.0930   -0.2900 C   0  0  0  0  0  0  0  0  0  0  0  0
    1.9820    0.4580   -0.6910 O   0  0  0  0  0  0  0  0  0  0  0  0
    0.9990   -1.6050    0.0160 C   0  0  3  0  0  0  0  0  0  0  0  0
    2.4150   -2.1210    0.3370 C   0  0  0  0  0  0  0  0  0  0  0  0
    2.3960   -3.6010    0.7550 C   0  0  0  0  0  0  0  0  0  0  0  0
    1.4950   -4.4510   -0.1190 C   0  0  0  0  0  0  0  0  0  0  0  0
    0.5950   -3.9280   -0.9660 C   0  0  0  0  0  0  0  0  0  0  0  0
    0.4140   -2.4330   -1.1480 C   0  0  0  0  0  0  0  0  0  0  0  0
  1  2  1  0  0  0  0
  2  3  1  0  0  0  0
  3  4  1  0  0  0  0
  3  8  1  0  0  0  0
  4  5  1  0  0  0  0
  5  6  1  0  0  0  0
  5  9  1  0  0  0  0
  6  7  1  0  0  0  0
  7  8  1  0  0  0  0
  9 10  2  0  0  0  0
  9 11  1  0  0  0  0
 11 12  1  0  0  0  0
 11 16  1  0  0  0  0
 12 13  1  0  0  0  0
 13 14  1  0  0  0  0
 14 15  2  0  0  0  0
 15 16  1  0  0  0  0
M  END
>  <NScode>
NS-021751416-0000

>  <a_acc>
2

>  <a_don>
0

>  <chiral>
2

>  <opr_nrot>
5

>  <Weight>
227.27899

>  <druglike>
1

>  <lip_druglike>
1

>  <lip_violation>
0

>  <logS>
-0.96249002

$$$$
