NS-015086129-0000
  MOE2022           3D

 37 41  0  0  0  0  0  0  0  0999 V2000
    4.9120   -9.3600    0.8110 N   0  0  0  0  0  0  0  0  0  0  0  0
    6.2500   -9.5080    0.4500 C   0  0  0  0  0  0  0  0  0  0  0  0
    6.7690  -10.8350    0.2310 C   0  0  0  0  0  0  0  0  0  0  0  0
    4.0130  -10.4660    0.7640 C   0  0  0  0  0  0  0  0  0  0  0  0
    4.5420  -11.7570    0.5260 C   0  0  0  0  0  0  0  0  0  0  0  0
    5.9450  -11.9160    0.2680 C   0  0  0  0  0  0  0  0  0  0  0  0
    2.6300  -10.2810    0.9420 C   0  0  0  0  0  0  0  0  0  0  0  0
    1.7970  -11.3870    0.9280 C   0  0  0  0  0  0  0  0  0  0  0  0
    4.4520   -8.0000    1.2150 C   0  0  0  0  0  0  0  0  0  0  0  0
    2.3220  -12.6820    0.7400 C   0  0  0  0  0  0  0  0  0  0  0  0
    3.6770  -12.8650    0.5300 C   0  0  0  0  0  0  0  0  0  0  0  0
    3.9810   -7.1110    0.0770 C   0  0  0  0  0  0  0  0  0  0  0  0
    8.2480  -10.9490   -0.0770 C   0  0  0  0  0  0  0  0  0  0  0  0
    6.9320   -8.4830    0.3290 O   0  0  0  0  0  0  0  0  0  0  0  0
    0.4410  -11.1930    1.0980 O   0  0  0  0  0  0  0  0  0  0  0  0
    1.4960  -13.7950    0.7580 O   0  0  0  0  0  0  0  0  0  0  0  0
    4.9150   -6.6940   -0.7780 N   0  0  0  0  0  0  0  0  0  0  0  0
    8.8280  -12.2210    0.3670 N   0  0  0  0  0  0  0  0  0  0  0  0
    2.7990   -6.8160   -0.0680 O   0  0  0  0  0  0  0  0  0  0  0  0
   10.2120  -12.4050    0.2490 C   0  0  0  0  0  0  0  0  0  0  0  0
    4.6570   -5.7420   -1.8480 C   0  0  0  0  0  0  0  0  0  0  0  0
    5.1320   -4.3540   -1.4840 C   0  0  0  0  0  0  0  0  0  0  0  0
   12.9550  -12.8100    0.1020 C   0  0  0  0  0  0  0  0  0  0  0  0
    5.9980   -1.7880   -0.7800 C   0  0  0  0  0  0  0  0  0  0  0  0
   10.8630  -13.1250    1.2530 C   0  0  0  0  0  0  0  0  0  0  0  0
   10.9330  -11.9000   -0.8410 C   0  0  0  0  0  0  0  0  0  0  0  0
    4.3250   -3.5270   -0.7050 C   0  0  0  0  0  0  0  0  0  0  0  0
    6.3780   -3.8920   -1.9050 C   0  0  0  0  0  0  0  0  0  0  0  0
   12.2370  -13.3250    1.1800 C   0  0  0  0  0  0  0  0  0  0  0  0
   12.3070  -12.1000   -0.9120 C   0  0  0  0  0  0  0  0  0  0  0  0
    6.8070   -2.6140   -1.5570 C   0  0  0  0  0  0  0  0  0  0  0  0
    4.7540   -2.2500   -0.3580 C   0  0  0  0  0  0  0  0  0  0  0  0
   14.3190  -13.0380    0.0830 O   0  0  0  0  0  0  0  0  0  0  0  0
   -0.4510  -12.2950    0.7960 C   0  0  0  0  0  0  0  0  0  0  0  0
    0.1430  -13.6290    1.2500 C   0  0  0  0  0  0  0  0  0  0  0  0
    6.4590   -0.3960   -0.4090 C   0  0  0  0  0  0  0  0  0  0  0  0
   15.2100  -12.6050   -0.9680 C   0  0  0  0  0  0  0  0  0  0  0  0
  1  2  1  0  0  0  0
  1  4  1  0  0  0  0
  1  9  1  0  0  0  0
  2  3  1  0  0  0  0
  2 14  2  0  0  0  0
  3  6  2  0  0  0  0
  3 13  1  0  0  0  0
  4  5  1  0  0  0  0
  4  7  2  0  0  0  0
  5  6  1  0  0  0  0
  5 11  2  0  0  0  0
  7  8  1  0  0  0  0
  8 10  2  0  0  0  0
  8 15  1  0  0  0  0
  9 12  1  0  0  0  0
 10 11  1  0  0  0  0
 10 16  1  0  0  0  0
 12 17  1  0  0  0  0
 12 19  2  0  0  0  0
 13 18  1  0  0  0  0
 15 34  1  0  0  0  0
 16 35  1  0  0  0  0
 17 21  1  0  0  0  0
 18 20  1  0  0  0  0
 20 25  2  0  0  0  0
 20 26  1  0  0  0  0
 21 22  1  0  0  0  0
 22 27  1  0  0  0  0
 22 28  2  0  0  0  0
 23 29  2  0  0  0  0
 23 30  1  0  0  0  0
 23 33  1  0  0  0  0
 24 31  2  0  0  0  0
 24 32  1  0  0  0  0
 24 36  1  0  0  0  0
 25 29  1  0  0  0  0
 26 30  2  0  0  0  0
 27 32  2  0  0  0  0
 28 31  1  0  0  0  0
 33 37  1  0  0  0  0
 34 35  1  0  0  0  0
M  END
>  <NScode>
NS-015086129-0000

>  <a_acc>
5

>  <a_don>
2

>  <chiral>
0

>  <opr_nrot>
9

>  <Weight>
499.56699

>  <druglike>
0

>  <lip_druglike>
1

>  <lip_violation>
0

>  <logS>
-6.4239602

$$$$
