NS-012855734-0000
  MOE2022           3D

 25 28  0  0  0  0  0  0  0  0999 V2000
   -3.6280   -1.7230   -0.4470 O   0  0  0  0  0  0  0  0  0  0  0  0
   -3.6960   -0.5460   -0.1010 C   0  0  0  0  0  0  0  0  0  0  0  0
   -2.4600    0.3500   -0.1360 C   0  0  0  0  0  0  0  0  0  0  0  0
   -1.1800   -0.3470   -0.0040 O   0  0  0  0  0  0  0  0  0  0  0  0
    0.0660    0.2440   -0.0520 C   0  0  0  0  0  0  0  0  0  0  0  0
    0.2210    1.6320   -0.1920 C   0  0  0  0  0  0  0  0  0  0  0  0
    1.4950    2.1780   -0.2360 C   0  0  0  0  0  0  0  0  0  0  0  0
    2.6090    1.3360   -0.1420 C   0  0  0  0  0  0  0  0  0  0  0  0
    3.8830    1.9120   -0.1920 N   0  0  0  0  0  0  0  0  0  0  0  0
    5.0440    1.1430   -0.1120 C   0  0  0  0  0  0  0  0  0  0  0  0
    6.2810    1.7930   -0.1740 C   0  0  0  0  0  0  0  0  0  0  0  0
    7.4470    1.0460   -0.0970 C   0  0  0  0  0  0  0  0  0  0  0  0
    7.3840   -0.3450    0.0430 C   0  0  0  0  0  0  0  0  0  0  0  0
    6.1540   -0.9870    0.1050 C   0  0  0  0  0  0  0  0  0  0  0  0
    4.9570   -0.2540    0.0290 C   0  0  0  0  0  0  0  0  0  0  0  0
    3.6540   -0.8870    0.0900 C   0  0  0  0  0  0  0  0  0  0  0  0
    3.5590   -2.1110    0.2190 O   0  0  0  0  0  0  0  0  0  0  0  0
    2.4680   -0.0580   -0.0020 C   0  0  0  0  0  0  0  0  0  0  0  0
    1.1690   -0.5930    0.0430 C   0  0  0  0  0  0  0  0  0  0  0  0
   -4.8970   -0.0240    0.2470 N   0  0  0  0  0  0  0  0  0  0  0  0
   -6.0720   -0.9120    0.4390 C   0  0  0  0  0  0  0  0  0  0  0  0
   -7.4020   -0.2590    0.0150 C   0  0  0  0  0  0  0  0  0  0  0  0
   -7.5700    1.0320    0.6000 O   0  0  0  0  0  0  0  0  0  0  0  0
   -6.5140    1.9130    0.2270 C   0  0  0  0  0  0  0  0  0  0  0  0
   -5.1360    1.3780    0.6680 C   0  0  0  0  0  0  0  0  0  0  0  0
  1  2  2  0  0  0  0
  2  3  1  0  0  0  0
  2 20  1  0  0  0  0
  3  4  1  0  0  0  0
  4  5  1  0  0  0  0
  5  6  1  0  0  0  0
  5 19  2  0  0  0  0
  6  7  2  0  0  0  0
  7  8  1  0  0  0  0
  8  9  1  0  0  0  0
  8 18  2  0  0  0  0
  9 10  1  0  0  0  0
 10 11  1  0  0  0  0
 10 15  2  0  0  0  0
 11 12  2  0  0  0  0
 12 13  1  0  0  0  0
 13 14  2  0  0  0  0
 14 15  1  0  0  0  0
 15 16  1  0  0  0  0
 16 17  2  0  0  0  0
 16 18  1  0  0  0  0
 18 19  1  0  0  0  0
 20 21  1  0  0  0  0
 20 25  1  0  0  0  0
 21 22  1  0  0  0  0
 22 23  1  0  0  0  0
 23 24  1  0  0  0  0
 24 25  1  0  0  0  0
M  END
>  <NScode>
NS-012855734-0000

>  <a_acc>
4

>  <a_don>
1

>  <chiral>
0

>  <opr_nrot>
5

>  <Weight>
338.36301

>  <druglike>
1

>  <lip_druglike>
1

>  <lip_violation>
0

>  <logS>
-3.84095

$$$$
