NS-042246892-0000
  MOE2022           3D

 17 17  0  0  1  0  0  0  0  0999 V2000
    2.2440    3.7680   -0.0090 C   0  0  0  0  0  0  0  0  0  0  0  0
    1.0890    2.8840   -0.1170 O   0  0  0  0  0  0  0  0  0  0  0  0
    1.1810    1.5050   -0.2000 C   0  0  0  0  0  0  0  0  0  0  0  0
    2.3650    0.9390   -0.6750 C   0  0  0  0  0  0  0  0  0  0  0  0
    2.4850   -0.4400   -0.7740 C   0  0  0  0  0  0  0  0  0  0  0  0
    1.4230   -1.2700   -0.4050 C   0  0  0  0  0  0  0  0  0  0  0  0
    0.2410   -0.6890    0.0700 C   0  0  0  0  0  0  0  0  0  0  0  0
    0.0910    0.7010    0.1840 C   0  0  0  0  0  0  0  0  0  0  0  0
   -1.2280    1.3140    0.6980 C   0  0  3  0  0  0  0  0  0  0  0  0
   -2.2310    0.2980    1.2670 C   0  0  0  0  0  0  0  0  0  0  0  0
   -0.9310    2.2050    1.7880 O   0  0  0  0  0  0  0  0  0  0  0  0
   -1.9140    2.1550   -0.4150 C   0  0  0  0  0  0  0  0  0  0  0  0
   -1.5460    3.5940   -0.4740 N   0  3  0  0  0  0  0  0  0  0  0  0
    1.5400   -2.7980   -0.4990 C   0  0  0  0  0  0  0  0  0  0  0  0
    0.4500   -3.3460   -1.0630 F   0  0  0  0  0  0  0  0  0  0  0  0
    1.6640   -3.3590    0.7120 F   0  0  0  0  0  0  0  0  0  0  0  0
    2.5920   -3.2090   -1.2270 F   0  0  0  0  0  0  0  0  0  0  0  0
  1  2  1  0  0  0  0
  2  3  1  0  0  0  0
  3  4  1  0  0  0  0
  3  8  2  0  0  0  0
  4  5  2  0  0  0  0
  5  6  1  0  0  0  0
  6  7  2  0  0  0  0
  6 14  1  0  0  0  0
  7  8  1  0  0  0  0
  8  9  1  0  0  0  0
  9 10  1  0  0  0  0
  9 11  1  0  0  0  0
  9 12  1  0  0  0  0
 12 13  1  0  0  0  0
 14 15  1  0  0  0  0
 14 16  1  0  0  0  0
 14 17  1  0  0  0  0
M  CHG  1  13   1
M  END
>  <NScode>
NS-042246892-0000

>  <a_acc>
3

>  <a_don>
2

>  <chiral>
1

>  <opr_nrot>
3

>  <Weight>
249.23199

>  <druglike>
1

>  <lip_druglike>
1

>  <lip_violation>
0

>  <logS>
-2.2814

$$$$
