NS-016137070-0000
  MOE2022           3D

 25 27  0  0  0  0  0  0  0  0999 V2000
   -2.2770    1.1810    0.2880 N   0  0  0  0  0  0  0  0  0  0  0  0
   -3.1940    1.5830   -0.6590 C   0  0  0  0  0  0  0  0  0  0  0  0
   -1.2200    1.9300    0.2300 C   0  0  0  0  0  0  0  0  0  0  0  0
   -4.4890    0.9250   -0.8200 C   0  0  0  0  0  0  0  0  0  0  0  0
   -4.9830   -0.3800    0.2160 S   0  0  0  0  0  0  0  0  0  0  0  0
   -0.1740    1.6690    1.1150 N   0  0  0  0  0  0  0  0  0  0  0  0
   -1.2200    3.1790   -0.9620 S   0  0  0  0  0  0  0  0  0  0  0  0
   -2.7810    2.6440   -1.4160 C   0  0  0  0  0  0  0  0  0  0  0  0
   -5.4750    1.1980   -1.7400 C   0  0  0  0  0  0  0  0  0  0  0  0
    0.9630    2.3900    1.3380 C   0  0  0  0  0  0  0  0  0  0  0  0
   -6.4980   -0.5300   -0.6000 C   0  0  0  0  0  0  0  0  0  0  0  0
   -6.6060    0.3770   -1.6130 C   0  0  0  0  0  0  0  0  0  0  0  0
    4.8400   -2.3100   -1.8470 C   0  0  0  0  0  0  0  0  0  0  0  0
    4.1420   -1.6020   -0.7740 C   0  0  0  0  0  0  0  0  0  0  0  0
    1.2030    3.4050    0.7200 O   0  0  0  0  0  0  0  0  0  0  0  0
    5.3710   -1.7100   -2.7540 O   0  0  0  0  0  0  0  0  0  0  0  0
    3.5500   -2.2920    0.3020 C   0  0  0  0  0  0  0  0  0  0  0  0
    4.0500   -0.1990   -0.7990 C   0  0  0  0  0  0  0  0  0  0  0  0
    2.1430    0.4090    2.2870 O   0  0  0  0  0  0  0  0  0  0  0  0
    1.9110    1.8500    2.3890 C   0  0  0  0  0  0  0  0  0  0  0  0
    2.8120   -0.2130    1.2630 C   0  0  0  0  0  0  0  0  0  0  0  0
    3.3920    0.4960    0.2080 C   0  0  0  0  0  0  0  0  0  0  0  0
    2.8910   -1.6020    1.3120 C   0  0  0  0  0  0  0  0  0  0  0  0
   -7.5090   -1.5650   -0.1680 C   0  0  0  0  0  0  0  0  0  0  0  0
    4.9390   -3.8180   -1.8850 C   0  0  0  0  0  0  0  0  0  0  0  0
  1  2  1  0  0  0  0
  1  3  2  0  0  0  0
  2  4  1  0  0  0  0
  2  8  2  0  0  0  0
  3  6  1  0  0  0  0
  3  7  1  0  0  0  0
  4  5  1  0  0  0  0
  4  9  2  0  0  0  0
  5 11  1  0  0  0  0
  6 10  1  0  0  0  0
  7  8  1  0  0  0  0
  9 12  1  0  0  0  0
 10 15  2  0  0  0  0
 10 20  1  0  0  0  0
 11 12  2  0  0  0  0
 11 24  1  0  0  0  0
 13 14  1  0  0  0  0
 13 16  2  0  0  0  0
 13 25  1  0  0  0  0
 14 17  1  0  0  0  0
 14 18  2  0  0  0  0
 17 23  2  0  0  0  0
 18 22  1  0  0  0  0
 19 20  1  0  0  0  0
 19 21  1  0  0  0  0
 21 22  2  0  0  0  0
 21 23  1  0  0  0  0
M  END
>  <NScode>
NS-016137070-0000

>  <a_acc>
4

>  <a_don>
1

>  <chiral>
0

>  <opr_nrot>
6

>  <Weight>
372.46899

>  <druglike>
1

>  <lip_druglike>
1

>  <lip_violation>
0

>  <logS>
-5.5464501

$$$$
