NS-018421194-0000
  MOE2022           3D

 24 26  0  0  1  0  0  0  0  0999 V2000
    2.0880   -1.5690    0.0410 N   0  0  0  0  0  0  0  0  0  0  0  0
    1.9270   -0.9390    1.1360 C   0  0  0  0  0  0  0  0  0  0  0  0
    2.2980   -2.8520    0.4480 C   0  0  0  0  0  0  0  0  0  0  0  0
    2.2480   -2.9490    1.7330 N   0  0  0  0  0  0  0  0  0  0  0  0
    2.0160   -1.7350    2.1760 O   0  0  0  0  0  0  0  0  0  0  0  0
    2.5400   -3.9620   -0.4640 C   0  0  0  0  0  0  0  0  0  0  0  0
    0.7780    1.1850    0.2760 N   0  3  0  0  0  0  0  0  0  0  0  0
    1.6560    0.5470    1.3540 C   0  0  3  0  0  0  0  0  0  0  0  0
   -1.8470    1.8930    1.5800 N   0  0  0  0  0  0  0  0  0  0  0  0
    2.7250   -5.5930    0.1080 S   0  0  0  0  0  0  0  0  0  0  0  0
    2.6550   -3.9190   -1.8360 C   0  0  0  0  0  0  0  0  0  0  0  0
    0.3930    2.6300    0.5750 C   0  0  0  0  0  0  0  0  0  0  0  0
   -0.4970    0.3790    0.0190 C   0  0  0  0  0  0  0  0  0  0  0  0
    2.9500   -6.1800   -1.4980 C   0  0  0  0  0  0  0  0  0  0  0  0
    2.8860   -5.1740   -2.4180 C   0  0  0  0  0  0  0  0  0  0  0  0
   -1.5620    0.4970    1.1340 C   0  0  0  0  0  0  0  0  0  0  0  0
   -0.6600    2.7910    1.6980 C   0  0  0  0  0  0  0  0  0  0  0  0
   -4.1200    3.5120   -1.2040 C   0  0  0  0  0  0  0  0  0  0  0  0
   -3.0370    2.5160    0.9530 C   0  0  0  0  0  0  0  0  0  0  0  0
   -2.8990    2.8260   -0.5520 C   0  0  0  0  0  0  0  0  0  0  0  0
    2.9840    1.2900    1.5410 C   0  0  0  0  0  0  0  0  0  0  0  0
   -4.3960    4.8910   -0.5820 C   0  0  0  0  0  0  0  0  0  0  0  0
   -3.8100    3.7200   -2.6950 C   0  0  0  0  0  0  0  0  0  0  0  0
   -5.3860    2.6470   -1.0980 C   0  0  0  0  0  0  0  0  0  0  0  0
  1  2  2  0  0  0  0
  1  3  1  0  0  0  0
  2  5  1  0  0  0  0
  2  8  1  0  0  0  0
  3  4  2  0  0  0  0
  3  6  1  0  0  0  0
  4  5  1  0  0  0  0
  6 10  1  0  0  0  0
  6 11  2  0  0  0  0
  7  8  1  0  0  0  0
  7 12  1  0  0  0  0
  7 13  1  0  0  0  0
  8 21  1  0  0  0  0
  9 16  1  0  0  0  0
  9 17  1  0  0  0  0
  9 19  1  0  0  0  0
 10 14  1  0  0  0  0
 11 15  1  0  0  0  0
 12 17  1  0  0  0  0
 13 16  1  0  0  0  0
 14 15  2  0  0  0  0
 18 20  1  0  0  0  0
 18 22  1  0  0  0  0
 18 23  1  0  0  0  0
 18 24  1  0  0  0  0
 19 20  1  0  0  0  0
M  CHG  1   7   1
M  END
>  <NScode>
NS-018421194-0000

>  <a_acc>
4

>  <a_don>
0

>  <chiral>
1

>  <opr_nrot>
8

>  <Weight>
348.51498

>  <druglike>
1

>  <lip_druglike>
1

>  <lip_violation>
0

>  <logS>
-5.1263099

$$$$
