NS-017346569-0000
  MOE2022           3D

 22 24  0  0  1  0  0  0  0  0999 V2000
    0.9350    1.6930    0.3810 C   0  0  0  0  0  0  0  0  0  0  0  0
    0.7130    0.7500    1.3610 N   0  0  0  0  0  0  0  0  0  0  0  0
    2.2480    2.0030    0.1540 N   0  0  0  0  0  0  0  0  0  0  0  0
   -1.6500   -1.3210    0.7170 N   0  3  3  0  0  0  0  0  0  0  0  0
   -0.0040    2.1920   -0.2250 O   0  0  0  0  0  0  0  0  0  0  0  0
   -0.6260    0.7440    1.9840 C   0  0  0  0  0  0  0  0  0  0  0  0
   -4.3720   -3.3070   -1.1010 O   0  0  0  0  0  0  0  0  0  0  0  0
   -2.7710   -1.7140   -0.2580 C   0  0  0  0  0  0  0  0  0  0  0  0
   -1.7320    0.1730    1.0690 C   0  0  0  0  0  0  0  0  0  0  0  0
    2.7820    2.8800   -0.8210 C   0  0  0  0  0  0  0  0  0  0  0  0
    0.8080   -1.7710    1.3150 C   0  0  0  0  0  0  0  0  0  0  0  0
    1.5660   -0.4440    1.4860 C   0  0  0  0  0  0  0  0  0  0  0  0
   -3.2600   -3.1780   -0.2470 C   0  0  3  0  0  0  0  0  0  0  0  0
   -0.2730   -1.7370    0.2270 C   0  0  0  0  0  0  0  0  0  0  0  0
   -4.6010   -4.6880   -1.3150 C   0  0  0  0  0  0  0  0  0  0  0  0
    4.0920    2.6400   -1.2390 C   0  0  0  0  0  0  0  0  0  0  0  0
    2.0610    3.9610   -1.3380 C   0  0  0  0  0  0  0  0  0  0  0  0
   -2.2860   -4.2140   -0.8060 C   0  0  0  0  0  0  0  0  0  0  0  0
   -3.2170   -5.3380   -1.2660 C   0  0  0  0  0  0  0  0  0  0  0  0
    2.6530    4.7880   -2.2870 C   0  0  0  0  0  0  0  0  0  0  0  0
    4.6760    3.4740   -2.1870 C   0  0  0  0  0  0  0  0  0  0  0  0
    3.9580    4.5460   -2.7130 C   0  0  0  0  0  0  0  0  0  0  0  0
  1  2  1  0  0  0  0
  1  3  1  0  0  0  0
  1  5  2  0  0  0  0
  2  6  1  0  0  0  0
  2 12  1  0  0  0  0
  3 10  1  0  0  0  0
  4  8  1  0  0  0  0
  4  9  1  0  0  0  0
  4 14  1  0  0  0  0
  6  9  1  0  0  0  0
  7 13  1  0  0  0  0
  7 15  1  0  0  0  0
  8 13  1  0  0  0  0
 10 16  1  0  0  0  0
 10 17  2  0  0  0  0
 11 12  1  0  0  0  0
 11 14  1  0  0  0  0
 13 18  1  0  0  0  0
 15 19  1  0  0  0  0
 16 21  2  0  0  0  0
 17 20  1  0  0  0  0
 18 19  1  0  0  0  0
 20 22  2  0  0  0  0
 21 22  1  0  0  0  0
M  CHG  1   4   1
M  END
>  <NScode>
NS-017346569-0000

>  <a_acc>
3

>  <a_don>
1

>  <chiral>
1

>  <opr_nrot>
7

>  <Weight>
303.40601

>  <druglike>
1

>  <lip_druglike>
1

>  <lip_violation>
0

>  <logS>
-2.2657199

$$$$
