NS-020145595-0000
  MOE2022           3D

 27 29  0  0  0  0  0  0  0  0999 V2000
   -3.1980   -2.5150   -0.1330 S   0  0  0  0  0  0  0  0  0  0  0  0
   -1.7470   -3.1710    0.5700 N   0  0  0  0  0  0  0  0  0  0  0  0
   -0.5050   -3.3120   -0.0010 C   0  0  0  0  0  0  0  0  0  0  0  0
    0.3250   -3.8770    0.8360 N   0  0  0  0  0  0  0  0  0  0  0  0
   -1.6450   -3.6570    1.8360 C   0  0  0  0  0  0  0  0  0  0  0  0
   -4.4790   -3.2340    0.6670 N   0  0  0  0  0  0  0  0  0  0  0  0
    0.4540   -1.5080   -1.5270 N   0  0  0  0  0  0  0  0  0  0  0  0
   -0.1590   -2.8590   -1.4180 C   0  0  0  0  0  0  0  0  0  0  0  0
   -3.2840   -2.8940   -1.4990 O   0  0  0  0  0  0  0  0  0  0  0  0
   -3.2470   -1.1180    0.1200 O   0  0  0  0  0  0  0  0  0  0  0  0
   -0.3750   -4.0890    1.9780 C   0  0  0  0  0  0  0  0  0  0  0  0
    2.1190    2.3690   -0.9270 N   0  0  0  0  0  0  0  0  0  0  0  0
    2.4370    3.2040    0.1550 C   0  0  0  0  0  0  0  0  0  0  0  0
    3.7430    3.7050    0.2790 C   0  0  0  0  0  0  0  0  0  0  0  0
    1.4810    1.0950   -0.6250 C   0  0  0  0  0  0  0  0  0  0  0  0
    2.4010   -0.0670   -0.9960 C   0  0  0  0  0  0  0  0  0  0  0  0
    0.1720    0.9510   -1.3990 C   0  0  0  0  0  0  0  0  0  0  0  0
   -0.4710   -0.4210   -1.1600 C   0  0  0  0  0  0  0  0  0  0  0  0
    1.7140   -1.4170   -0.7630 C   0  0  0  0  0  0  0  0  0  0  0  0
    4.6880    3.3330   -0.6810 O   0  0  0  0  0  0  0  0  0  0  0  0
   -5.7740   -2.5450    0.6130 C   0  0  0  0  0  0  0  0  0  0  0  0
   -4.6570   -4.6860    0.5240 C   0  0  0  0  0  0  0  0  0  0  0  0
    1.4660    3.5560    1.0950 C   0  0  0  0  0  0  0  0  0  0  0  0
    4.0740    4.5410    1.3440 C   0  0  0  0  0  0  0  0  0  0  0  0
    6.0460    3.8220   -0.7260 C   0  0  0  0  0  0  0  0  0  0  0  0
    1.8030    4.3910    2.1570 C   0  0  0  0  0  0  0  0  0  0  0  0
    3.1020    4.8820    2.2830 C   0  0  0  0  0  0  0  0  0  0  0  0
  1  2  1  0  0  0  0
  1  6  1  0  0  0  0
  1  9  2  0  0  0  0
  1 10  2  0  0  0  0
  2  3  1  0  0  0  0
  2  5  1  0  0  0  0
  3  4  2  0  0  0  0
  3  8  1  0  0  0  0
  4 11  1  0  0  0  0
  5 11  2  0  0  0  0
  6 21  1  0  0  0  0
  6 22  1  0  0  0  0
  7  8  1  0  0  0  0
  7 18  1  0  0  0  0
  7 19  1  0  0  0  0
 12 13  1  0  0  0  0
 12 15  1  0  0  0  0
 13 14  2  0  0  0  0
 13 23  1  0  0  0  0
 14 20  1  0  0  0  0
 14 24  1  0  0  0  0
 15 16  1  0  0  0  0
 15 17  1  0  0  0  0
 16 19  1  0  0  0  0
 17 18  1  0  0  0  0
 20 25  1  0  0  0  0
 23 26  2  0  0  0  0
 24 27  2  0  0  0  0
 26 27  1  0  0  0  0
M  END
>  <NScode>
NS-020145595-0000

>  <a_acc>
5

>  <a_don>
1

>  <chiral>
0

>  <opr_nrot>
8

>  <Weight>
393.51199

>  <druglike>
1

>  <lip_druglike>
1

>  <lip_violation>
0

>  <logS>
-1.7759

$$$$
