NS-012484571-0000
  MOE2022           3D

 27 29  0  0  0  0  0  0  0  0999 V2000
    3.2610   -4.4680   -0.6590 C   0  0  0  0  0  0  0  0  0  0  0  0
    4.4090   -5.0910   -1.0010 C   0  0  0  0  0  0  0  0  0  0  0  0
    2.1240   -5.0750   -1.1600 N   0  0  0  0  0  0  0  0  0  0  0  0
    3.2260   -3.3340    0.1210 N   0  0  0  0  0  0  0  0  0  0  0  0
    5.5730   -3.4000    0.2350 N   0  0  0  0  0  0  0  0  0  0  0  0
    5.6470   -4.5590   -0.5400 C   0  0  0  0  0  0  0  0  0  0  0  0
    2.4050   -6.2090   -1.9400 C   0  0  0  0  0  0  0  0  0  0  0  0
    4.1300   -6.4900   -1.9930 S   0  0  0  0  0  0  0  0  0  0  0  0
    4.3280   -2.8300    0.5540 C   0  0  0  0  0  0  0  0  0  0  0  0
    6.8490   -2.8470    0.7710 C   0  0  0  0  0  0  0  0  0  0  0  0
    7.2980   -3.4280    2.1090 C   0  0  0  0  0  0  0  0  0  0  0  0
    1.2250   -7.1390   -2.7040 S   0  0  0  0  0  0  0  0  0  0  0  0
    6.7700   -5.0340   -0.7750 O   0  0  0  0  0  0  0  0  0  0  0  0
    8.6020   -3.7030    2.3860 N   0  0  0  0  0  0  0  0  0  0  0  0
   10.8250   -4.3550   -0.5000 C   0  0  0  0  0  0  0  0  0  0  0  0
   10.9330   -5.2340   -1.6670 C   0  0  0  0  0  0  0  0  0  0  0  0
    9.7600   -4.4660    0.4050 C   0  0  0  0  0  0  0  0  0  0  0  0
    9.6790   -3.5990    1.4910 C   0  0  0  0  0  0  0  0  0  0  0  0
    6.5290   -3.6140    3.0260 O   0  0  0  0  0  0  0  0  0  0  0  0
   11.8590   -5.1330   -2.4380 O   0  0  0  0  0  0  0  0  0  0  0  0
    0.7750   -4.5530   -0.9440 C   0  0  0  0  0  0  0  0  0  0  0  0
    4.2920   -1.5900    1.4170 C   0  0  0  0  0  0  0  0  0  0  0  0
   11.8040   -3.3710   -0.2650 C   0  0  0  0  0  0  0  0  0  0  0  0
   11.7190   -2.5210    0.8350 C   0  0  0  0  0  0  0  0  0  0  0  0
   10.6540   -2.6310    1.7210 C   0  0  0  0  0  0  0  0  0  0  0  0
    9.9030   -6.2960   -1.9730 C   0  0  0  0  0  0  0  0  0  0  0  0
    0.3570   -3.5430   -2.0160 C   0  0  0  0  0  0  0  0  0  0  0  0
  1  2  2  0  0  0  0
  1  3  1  0  0  0  0
  1  4  1  0  0  0  0
  2  6  1  0  0  0  0
  2  8  1  0  0  0  0
  3  7  1  0  0  0  0
  3 21  1  0  0  0  0
  4  9  2  0  0  0  0
  5  6  1  0  0  0  0
  5  9  1  0  0  0  0
  5 10  1  0  0  0  0
  6 13  2  0  0  0  0
  7  8  1  0  0  0  0
  7 12  2  0  0  0  0
  9 22  1  0  0  0  0
 10 11  1  0  0  0  0
 11 14  1  0  0  0  0
 11 19  2  0  0  0  0
 14 18  1  0  0  0  0
 15 16  1  0  0  0  0
 15 17  2  0  0  0  0
 15 23  1  0  0  0  0
 16 20  2  0  0  0  0
 16 26  1  0  0  0  0
 17 18  1  0  0  0  0
 18 25  2  0  0  0  0
 21 27  1  0  0  0  0
 23 24  2  0  0  0  0
 24 25  1  0  0  0  0
M  END
>  <NScode>
NS-012484571-0000

>  <a_acc>
5

>  <a_don>
1

>  <chiral>
0

>  <opr_nrot>
5

>  <Weight>
402.49899

>  <druglike>
1

>  <lip_druglike>
1

>  <lip_violation>
0

>  <logS>
-5.7636399

$$$$
