NS-015279852-0000
  MOE2022           3D

 23 24  0  0  0  0  0  0  0  0999 V2000
   -2.3530    3.8170    0.0370 C   0  0  0  0  0  0  0  0  0  0  0  0
   -1.0800   -1.5760    0.0050 C   0  0  0  0  0  0  0  0  0  0  0  0
   -0.0530   -0.6530   -0.0130 N   0  0  0  0  0  0  0  0  0  0  0  0
   -0.7050   -2.9970   -0.0040 C   0  0  0  0  0  0  0  0  0  0  0  0
   -0.0400    0.7690    0.0030 C   0  0  0  0  0  0  0  0  0  0  0  0
   -1.0830    2.9590    0.0320 C   0  0  0  0  0  0  0  0  0  0  0  0
   -1.1900    1.5630    0.0130 C   0  0  0  0  0  0  0  0  0  0  0  0
    0.6060   -3.3580   -0.0330 N   0  0  0  0  0  0  0  0  0  0  0  0
    1.2250    1.3730    0.0080 C   0  0  0  0  0  0  0  0  0  0  0  0
   -2.2460   -1.1940    0.0290 O   0  0  0  0  0  0  0  0  0  0  0  0
   -1.4320   -5.2860    0.0120 N   0  0  0  0  0  0  0  0  0  0  0  0
    0.1910    3.5480    0.0310 C   0  0  0  0  0  0  0  0  0  0  0  0
   -2.9380    3.8540   -1.1710 F   0  0  0  0  0  0  0  0  0  0  0  0
   -2.1210    5.0990    0.3830 F   0  0  0  0  0  0  0  0  0  0  0  0
   -3.2800    3.3620    0.8970 F   0  0  0  0  0  0  0  0  0  0  0  0
    1.3410    2.7610    0.0200 C   0  0  0  0  0  0  0  0  0  0  0  0
   -1.7080   -3.9800    0.0180 C   0  0  0  0  0  0  0  0  0  0  0  0
    2.3470    0.5490    0.0020 O   0  0  0  0  0  0  0  0  0  0  0  0
    0.8700   -4.6620   -0.0390 C   0  0  0  0  0  0  0  0  0  0  0  0
   -0.1430   -5.6240   -0.0160 C   0  0  0  0  0  0  0  0  0  0  0  0
    3.7180    0.9960    0.0310 C   0  0  0  0  0  0  0  0  0  0  0  0
    4.6830   -0.1910    0.0600 C   0  0  0  0  0  0  0  0  0  0  0  0
    6.1450    0.2720    0.1010 C   0  0  0  0  0  0  0  0  0  0  0  0
  1  6  1  0  0  0  0
  1 13  1  0  0  0  0
  1 14  1  0  0  0  0
  1 15  1  0  0  0  0
  2  3  1  0  0  0  0
  2  4  1  0  0  0  0
  2 10  2  0  0  0  0
  3  5  1  0  0  0  0
  4  8  1  0  0  0  0
  4 17  2  0  0  0  0
  5  7  2  0  0  0  0
  5  9  1  0  0  0  0
  6  7  1  0  0  0  0
  6 12  2  0  0  0  0
  8 19  2  0  0  0  0
  9 16  2  0  0  0  0
  9 18  1  0  0  0  0
 11 17  1  0  0  0  0
 11 20  2  0  0  0  0
 12 16  1  0  0  0  0
 18 21  1  0  0  0  0
 19 20  1  0  0  0  0
 21 22  1  0  0  0  0
 22 23  1  0  0  0  0
M  END
>  <NScode>
NS-015279852-0000

>  <a_acc>
4

>  <a_don>
1

>  <chiral>
0

>  <opr_nrot>
5

>  <Weight>
325.28998

>  <druglike>
1

>  <lip_druglike>
1

>  <lip_violation>
0

>  <logS>
-2.6274199

$$$$
