NS-016020230-0000
  MOE2022           3D

 21 22  0  0  0  0  0  0  0  0999 V2000
    3.0110   -4.4750   -0.2610 C   0  0  0  0  0  0  0  0  0  0  0  0
    1.8840   -5.2470    0.0320 C   0  0  0  0  0  0  0  0  0  0  0  0
    1.6330   -2.4870   -0.3870 C   0  0  0  0  0  0  0  0  0  0  0  0
    4.3130   -5.0570   -0.3710 N   0  0  0  0  0  0  0  0  0  0  0  0
    2.8850   -3.0920   -0.4840 C   0  0  0  0  0  0  0  0  0  0  0  0
    0.6330   -4.6390    0.1270 C   0  0  0  0  0  0  0  0  0  0  0  0
    0.5090   -3.2530   -0.0800 C   0  0  0  0  0  0  0  0  0  0  0  0
    4.8140   -6.1360    0.3070 C   0  0  0  0  0  0  0  0  0  0  0  0
    7.3610   -5.1510   -0.4010 S   0  0  0  0  0  0  0  0  0  0  0  0
    8.9860   -5.8290   -0.3340 C   0  0  0  0  0  0  0  0  0  0  0  0
    4.1390   -6.7240    1.1260 O   0  0  0  0  0  0  0  0  0  0  0  0
   10.0840   -4.9880   -0.0500 C   0  0  0  0  0  0  0  0  0  0  0  0
    6.2360   -6.5470   -0.0110 C   0  0  0  0  0  0  0  0  0  0  0  0
    4.2650   -2.1250   -0.8860 Cl  0  0  0  0  0  0  0  0  0  0  0  0
   -1.0290   -2.4670    0.0340 Cl  0  0  0  0  0  0  0  0  0  0  0  0
   -0.7490   -5.6140    0.4920 Cl  0  0  0  0  0  0  0  0  0  0  0  0
    9.8870   -3.6230    0.1940 N   0  0  0  0  0  0  0  0  0  0  0  0
    9.2290   -7.1850   -0.5770 C   0  0  0  0  0  0  0  0  0  0  0  0
   11.3780   -5.4960   -0.0060 C   0  0  0  0  0  0  0  0  0  0  0  0
   10.5280   -7.6900   -0.5300 C   0  0  0  0  0  0  0  0  0  0  0  0
   11.6000   -6.8500   -0.2450 C   0  0  0  0  0  0  0  0  0  0  0  0
  1  2  1  0  0  0  0
  1  4  1  0  0  0  0
  1  5  2  0  0  0  0
  2  6  2  0  0  0  0
  3  5  1  0  0  0  0
  3  7  2  0  0  0  0
  4  8  1  0  0  0  0
  5 14  1  0  0  0  0
  6  7  1  0  0  0  0
  6 16  1  0  0  0  0
  7 15  1  0  0  0  0
  8 11  2  0  0  0  0
  8 13  1  0  0  0  0
  9 10  1  0  0  0  0
  9 13  1  0  0  0  0
 10 12  2  0  0  0  0
 10 18  1  0  0  0  0
 12 17  1  0  0  0  0
 12 19  1  0  0  0  0
 18 20  2  0  0  0  0
 19 21  2  0  0  0  0
 20 21  1  0  0  0  0
M  END
>  <NScode>
NS-016020230-0000

>  <a_acc>
1

>  <a_don>
2

>  <chiral>
0

>  <opr_nrot>
4

>  <Weight>
361.67999

>  <druglike>
1

>  <lip_druglike>
1

>  <lip_violation>
0

>  <logS>
-6.3264599

$$$$
