NS-019583351-0000
  MOE2022           3D

 25 26  0  0  1  0  0  0  0  0999 V2000
   -3.3910    0.3950   -0.3700 C   0  0  3  0  0  0  0  0  0  0  0  0
   -4.4400   -0.6610   -0.7030 C   0  0  0  0  0  0  0  0  0  0  0  0
   -2.0180   -0.1160   -0.3280 N   0  0  0  0  0  0  0  0  0  0  0  0
   -5.1960   -0.6220   -2.2620 S   0  0  0  0  0  0  0  0  0  0  0  0
   -1.5090   -1.0990    0.4140 C   0  0  0  0  0  0  0  0  0  0  0  0
    1.0150    0.8270   -0.3910 C   0  0  0  0  0  0  0  0  0  0  0  0
   -3.7600    1.4190    0.7700 C   0  0  0  0  0  0  0  0  0  0  0  0
    0.8690   -0.1690    0.4840 N   0  0  0  0  0  0  0  0  0  0  0  0
   -4.9310   -1.6920    0.0530 C   0  0  0  0  0  0  0  0  0  0  0  0
   -6.1660   -1.9950   -1.8710 C   0  0  0  0  0  0  0  0  0  0  0  0
   -5.9120   -2.4490   -0.6100 C   0  0  0  0  0  0  0  0  0  0  0  0
   -2.1600   -1.7440    1.2270 O   0  0  0  0  0  0  0  0  0  0  0  0
    0.3920    0.8310   -1.4480 O   0  0  0  0  0  0  0  0  0  0  0  0
    0.0080   -1.3550    0.2940 C   0  0  0  0  0  0  0  0  0  0  0  0
    3.2190    1.5010    0.5770 O   0  0  0  0  0  0  0  0  0  0  0  0
    1.9600    1.9520   -0.0130 C   0  0  0  0  0  0  0  0  0  0  0  0
    4.2410    0.8810   -0.1090 C   0  0  0  0  0  0  0  0  0  0  0  0
   -2.7590    2.5940    0.7650 C   0  0  0  0  0  0  0  0  0  0  0  0
   -3.7500    0.8090    2.1850 C   0  0  0  0  0  0  0  0  0  0  0  0
   -5.1610    2.0110    0.5170 C   0  0  0  0  0  0  0  0  0  0  0  0
    5.3950    0.5830    0.6090 C   0  0  0  0  0  0  0  0  0  0  0  0
    4.1420    0.5600   -1.4660 C   0  0  0  0  0  0  0  0  0  0  0  0
    5.2140   -0.0620   -2.0990 C   0  0  0  0  0  0  0  0  0  0  0  0
    6.4630   -0.0380   -0.0310 C   0  0  0  0  0  0  0  0  0  0  0  0
    6.3730   -0.3600   -1.3840 C   0  0  0  0  0  0  0  0  0  0  0  0
  1  2  1  0  0  0  0
  1  3  1  0  0  0  0
  1  7  1  0  0  0  0
  2  4  1  0  0  0  0
  2  9  2  0  0  0  0
  3  5  1  0  0  0  0
  4 10  1  0  0  0  0
  5 12  2  0  0  0  0
  5 14  1  0  0  0  0
  6  8  1  0  0  0  0
  6 13  2  0  0  0  0
  6 16  1  0  0  0  0
  7 18  1  0  0  0  0
  7 19  1  0  0  0  0
  7 20  1  0  0  0  0
  8 14  1  0  0  0  0
  9 11  1  0  0  0  0
 10 11  2  0  0  0  0
 15 16  1  0  0  0  0
 15 17  1  0  0  0  0
 17 21  1  0  0  0  0
 17 22  2  0  0  0  0
 21 24  2  0  0  0  0
 22 23  1  0  0  0  0
 23 25  2  0  0  0  0
 24 25  1  0  0  0  0
M  END
>  <NScode>
NS-019583351-0000

>  <a_acc>
3

>  <a_don>
2

>  <chiral>
1

>  <opr_nrot>
8

>  <Weight>
360.478

>  <druglike>
1

>  <lip_druglike>
1

>  <lip_violation>
0

>  <logS>
-4.2874899

$$$$
