NS-018426117-0000
  MOE2022           3D

 31 32  0  0  0  0  0  0  0  0999 V2000
   -3.4350    0.1010    0.6180 C   0  0  0  0  0  0  0  0  0  0  0  0
    7.4800   -2.9420    0.6490 S   0  0  0  0  0  0  0  0  0  0  0  0
   -3.2280   -1.3460    0.5540 C   0  0  0  0  0  0  0  0  0  0  0  0
   -2.3390    0.9890    0.6350 C   0  0  0  0  0  0  0  0  0  0  0  0
   -4.7330    0.6350    0.6750 C   0  0  0  0  0  0  0  0  0  0  0  0
   -2.5310    2.3720    0.6820 C   0  0  0  0  0  0  0  0  0  0  0  0
   -1.0360    0.4260    0.6420 N   0  0  0  0  0  0  0  0  0  0  0  0
    6.0600   -1.8650    0.3630 C   0  0  0  0  0  0  0  0  0  0  0  0
   -4.9320    2.0130    0.7190 C   0  0  0  0  0  0  0  0  0  0  0  0
   -3.8220    2.8850    0.7170 C   0  0  0  0  0  0  0  0  0  0  0  0
    0.1230    0.9390    0.1310 C   0  0  0  0  0  0  0  0  0  0  0  0
    7.2680   -4.1610   -0.0500 O   0  0  0  0  0  0  0  0  0  0  0  0
    7.7080   -3.0190    2.0480 O   0  0  0  0  0  0  0  0  0  0  0  0
   -3.9460   -2.1290   -0.3420 N   0  0  0  0  0  0  0  0  0  0  0  0
    8.7400   -2.1430   -0.0370 N   0  0  0  0  0  0  0  0  0  0  0  0
   -2.4030   -1.9250    1.2650 O   0  0  0  0  0  0  0  0  0  0  0  0
    0.1350    1.9970   -0.4590 O   0  0  0  0  0  0  0  0  0  0  0  0
    5.7400   -0.8530    1.2720 C   0  0  0  0  0  0  0  0  0  0  0  0
    5.2440   -2.0430   -0.7570 C   0  0  0  0  0  0  0  0  0  0  0  0
    1.3580    0.0910    0.3170 C   0  0  0  0  0  0  0  0  0  0  0  0
    3.8430   -0.2010   -0.0720 C   0  0  0  0  0  0  0  0  0  0  0  0
   -6.2290    2.5170    0.7680 O   0  0  0  0  0  0  0  0  0  0  0  0
   -3.9050    4.2670    0.7590 O   0  0  0  0  0  0  0  0  0  0  0  0
    4.1470   -1.2160   -0.9740 C   0  0  0  0  0  0  0  0  0  0  0  0
    4.6420   -0.0260    1.0550 C   0  0  0  0  0  0  0  0  0  0  0  0
    2.6370    0.6850   -0.2980 C   0  0  0  0  0  0  0  0  0  0  0  0
   -4.5810   -1.5680   -1.5460 C   0  0  0  0  0  0  0  0  0  0  0  0
   -3.8470   -3.5970   -0.2840 C   0  0  0  0  0  0  0  0  0  0  0  0
    8.7950   -1.9760   -1.4870 C   0  0  0  0  0  0  0  0  0  0  0  0
   -7.4470    1.7440    0.8770 C   0  0  0  0  0  0  0  0  0  0  0  0
   -5.0880    5.0940    0.7680 C   0  0  0  0  0  0  0  0  0  0  0  0
  1  3  1  0  0  0  0
  1  4  2  0  0  0  0
  1  5  1  0  0  0  0
  2  8  1  0  0  0  0
  2 12  2  0  0  0  0
  2 13  2  0  0  0  0
  2 15  1  0  0  0  0
  3 14  1  0  0  0  0
  3 16  2  0  0  0  0
  4  6  1  0  0  0  0
  4  7  1  0  0  0  0
  5  9  2  0  0  0  0
  6 10  2  0  0  0  0
  7 11  1  0  0  0  0
  8 18  1  0  0  0  0
  8 19  2  0  0  0  0
  9 10  1  0  0  0  0
  9 22  1  0  0  0  0
 10 23  1  0  0  0  0
 11 17  2  0  0  0  0
 11 20  1  0  0  0  0
 14 27  1  0  0  0  0
 14 28  1  0  0  0  0
 15 29  1  0  0  0  0
 18 25  2  0  0  0  0
 19 24  1  0  0  0  0
 20 26  1  0  0  0  0
 21 24  2  0  0  0  0
 21 25  1  0  0  0  0
 21 26  1  0  0  0  0
 22 30  1  0  0  0  0
 23 31  1  0  0  0  0
M  END
>  <NScode>
NS-018426117-0000

>  <a_acc>
6

>  <a_don>
2

>  <chiral>
0

>  <opr_nrot>
8

>  <Weight>
449.52798

>  <druglike>
1

>  <lip_druglike>
1

>  <lip_violation>
0

>  <logS>
-3.2771399

$$$$
