NS-021938777-0000
  MOE2022           3D

 25 27  0  0  0  0  0  0  0  0999 V2000
    1.1150    1.6260    1.1560 C   0  0  0  0  0  0  0  0  0  0  0  0
    0.9510    0.3430    0.5020 N   0  0  0  0  0  0  0  0  0  0  0  0
    1.7870   -0.6880    0.8030 N   0  0  0  0  0  0  0  0  0  0  0  0
    1.4080   -1.6930    0.0350 C   0  0  0  0  0  0  0  0  0  0  0  0
    0.3340   -1.3050   -0.7730 C   0  0  0  0  0  0  0  0  0  0  0  0
    0.0520   -0.0210   -0.4610 C   0  0  0  0  0  0  0  0  0  0  0  0
   -0.9590    0.8050   -1.0490 N   0  0  0  0  0  0  0  0  0  0  0  0
   -1.7810    1.6860   -0.3880 C   0  0  0  0  0  0  0  0  0  0  0  0
   -1.7530    1.8390    0.8320 O   0  0  0  0  0  0  0  0  0  0  0  0
   -2.6190    2.3690   -1.2230 N   0  0  0  0  0  0  0  0  0  0  0  0
   -3.6100    3.4270   -0.8680 N   0  0  0  0  0  0  0  0  0  0  0  0
   -3.8910    3.7180    0.5520 C   0  0  0  0  0  0  0  0  0  0  0  0
   -5.0950    4.6440    0.7850 C   0  0  0  0  0  0  0  0  0  0  0  0
   -5.1140    5.7970   -0.2180 C   0  0  0  0  0  0  0  0  0  0  0  0
   -5.1510    5.2380   -1.6490 C   0  0  0  0  0  0  0  0  0  0  0  0
   -4.1400    4.1410   -1.9170 C   0  0  0  0  0  0  0  0  0  0  0  0
   -3.7900    3.8550   -3.0570 O   0  0  0  0  0  0  0  0  0  0  0  0
    2.0570   -3.0050    0.0590 C   0  0  0  0  0  0  0  0  0  0  0  0
    3.2910   -3.1820    0.7110 C   0  0  0  0  0  0  0  0  0  0  0  0
    3.8980   -4.4320    0.7250 C   0  0  0  0  0  0  0  0  0  0  0  0
    5.0850   -4.5750    1.3550 F   0  0  0  0  0  0  0  0  0  0  0  0
    3.3320   -5.5420    0.1170 C   0  0  0  0  0  0  0  0  0  0  0  0
    2.1150   -5.3560   -0.5180 C   0  0  0  0  0  0  0  0  0  0  0  0
    1.5290   -6.4120   -1.1210 F   0  0  0  0  0  0  0  0  0  0  0  0
    1.4710   -4.1240   -0.5590 C   0  0  0  0  0  0  0  0  0  0  0  0
  1  2  1  0  0  0  0
  2  3  1  0  0  0  0
  2  6  1  0  0  0  0
  3  4  2  0  0  0  0
  4  5  1  0  0  0  0
  4 18  1  0  0  0  0
  5  6  2  0  0  0  0
  6  7  1  0  0  0  0
  7  8  1  0  0  0  0
  8  9  2  0  0  0  0
  8 10  1  0  0  0  0
 10 11  1  0  0  0  0
 11 12  1  0  0  0  0
 11 16  1  0  0  0  0
 12 13  1  0  0  0  0
 13 14  1  0  0  0  0
 14 15  1  0  0  0  0
 15 16  1  0  0  0  0
 16 17  2  0  0  0  0
 18 19  1  0  0  0  0
 18 25  2  0  0  0  0
 19 20  2  0  0  0  0
 20 21  1  0  0  0  0
 20 22  1  0  0  0  0
 22 23  2  0  0  0  0
 23 24  1  0  0  0  0
 23 25  1  0  0  0  0
M  END
>  <NScode>
NS-021938777-0000

>  <a_acc>
3

>  <a_don>
2

>  <chiral>
0

>  <opr_nrot>
4

>  <Weight>
349.341

>  <druglike>
1

>  <lip_druglike>
1

>  <lip_violation>
0

>  <logS>
-3.6674399

$$$$
