NS-015065175-0000
  MOE2022           3D

 21 22  0  0  0  0  0  0  0  0999 V2000
   -2.1300    2.0370    0.2980 N   0  0  0  0  0  0  0  0  0  0  0  0
   -1.5830    1.0340    0.9970 C   0  0  0  0  0  0  0  0  0  0  0  0
   -2.1410   -0.0930    0.5790 N   0  3  0  0  0  0  0  0  0  0  0  0
   -3.0590    1.5100   -0.6070 C   0  0  0  0  0  0  0  0  0  0  0  0
   -3.0550    0.1770   -0.4200 C   0  0  0  0  0  0  0  0  0  0  0  0
   -0.3820    1.1430    2.2170 S   0  0  0  0  0  0  0  0  0  0  0  0
   -1.7540    3.4730    0.4670 C   0  0  0  0  0  0  0  0  0  0  0  0
   -2.8960    4.4290    0.8110 C   0  0  0  0  0  0  0  0  0  0  0  0
    1.2660    2.0110    0.1560 C   0  0  0  0  0  0  0  0  0  0  0  0
    1.1520    0.9650    1.2440 C   0  0  0  0  0  0  0  0  0  0  0  0
    0.8880    1.7360   -1.1570 C   0  0  0  0  0  0  0  0  0  0  0  0
   -3.6050    4.8980   -0.0730 O   0  0  0  0  0  0  0  0  0  0  0  0
   -3.1710    4.6720    2.1010 N   0  0  0  0  0  0  0  0  0  0  0  0
    0.4120    0.5050   -1.4660 F   0  0  0  0  0  0  0  0  0  0  0  0
   -3.9020    2.3030   -1.5950 C   0  0  0  0  0  0  0  0  0  0  0  0
   -4.4920    1.4290   -2.5890 O   0  0  0  0  0  0  0  0  0  0  0  0
    1.7330    3.2930    0.4500 C   0  0  0  0  0  0  0  0  0  0  0  0
    0.9590    2.6850   -2.1680 C   0  0  0  0  0  0  0  0  0  0  0  0
   -4.2680    5.5440    2.5240 C   0  0  0  0  0  0  0  0  0  0  0  0
    1.8090    4.2600   -0.5520 C   0  0  0  0  0  0  0  0  0  0  0  0
    1.4230    3.9600   -1.8580 C   0  0  0  0  0  0  0  0  0  0  0  0
  1  2  1  0  0  0  0
  1  4  1  0  0  0  0
  1  7  1  0  0  0  0
  2  3  2  0  0  0  0
  2  6  1  0  0  0  0
  3  5  1  0  0  0  0
  4  5  2  0  0  0  0
  4 15  1  0  0  0  0
  6 10  1  0  0  0  0
  7  8  1  0  0  0  0
  8 12  2  0  0  0  0
  8 13  1  0  0  0  0
  9 10  1  0  0  0  0
  9 11  2  0  0  0  0
  9 17  1  0  0  0  0
 11 14  1  0  0  0  0
 11 18  1  0  0  0  0
 13 19  1  0  0  0  0
 15 16  1  0  0  0  0
 17 20  2  0  0  0  0
 18 21  2  0  0  0  0
 20 21  1  0  0  0  0
M  CHG  1   3   1
M  END
>  <NScode>
NS-015065175-0000

>  <a_acc>
3

>  <a_don>
2

>  <chiral>
0

>  <opr_nrot>
6

>  <Weight>
309.36499

>  <druglike>
1

>  <lip_druglike>
1

>  <lip_violation>
0

>  <logS>
-3.6656401

$$$$
