NS-025061438-0000
  MOE2022           3D

 22 23  0  0  1  0  0  0  0  0999 V2000
   -3.3750    1.8950   -1.5770 C   0  0  0  0  0  0  0  0  0  0  0  0
   -2.3280    1.1060   -0.7660 C   0  0  3  0  0  0  0  0  0  0  0  0
   -1.2040    0.5040   -1.6130 C   0  0  0  0  0  0  0  0  0  0  0  0
   -1.0300    0.8000   -2.7920 O   0  0  0  0  0  0  0  0  0  0  0  0
   -0.3830   -0.3530   -1.0000 N   0  0  0  0  0  0  0  0  0  0  0  0
    0.8120   -0.9000   -1.6280 C   0  0  0  0  0  0  0  0  0  0  0  0
    2.0530   -0.1290   -1.2300 C   0  0  0  0  0  0  0  0  0  0  0  0
    2.3580    1.0670   -1.8750 C   0  0  0  0  0  0  0  0  0  0  0  0
    3.4810    1.7970   -1.5030 C   0  0  0  0  0  0  0  0  0  0  0  0
    4.3060    1.3330   -0.4840 C   0  0  0  0  0  0  0  0  0  0  0  0
    4.0210    0.1310    0.1670 C   0  0  0  0  0  0  0  0  0  0  0  0
    2.8830   -0.5880   -0.2080 C   0  0  0  0  0  0  0  0  0  0  0  0
    5.0870   -0.4650    1.4920 S   0  0  0  0  0  0  0  0  0  0  0  0
    4.3510   -1.3600    2.3180 O   0  0  0  0  0  0  0  0  0  0  0  0
    5.7100    0.6440    2.1290 O   0  0  0  0  0  0  0  0  0  0  0  0
    6.3380   -1.3940    0.6440 C   0  0  0  0  0  0  0  0  0  0  0  0
   -3.0110    0.0620    0.1000 C   0  0  0  0  0  0  0  0  0  0  0  0
   -3.6400   -1.1000   -0.3340 C   0  0  0  0  0  0  0  0  0  0  0  0
   -4.1220   -1.7790    0.6710 N   0  0  0  0  0  0  0  0  0  0  0  0
   -3.8050   -1.0510    1.7670 N   0  0  0  0  0  0  0  0  0  0  0  0
   -4.1900   -1.4670    3.0970 C   0  0  0  0  0  0  0  0  0  0  0  0
   -3.1290    0.0730    1.4480 C   0  0  0  0  0  0  0  0  0  0  0  0
  1  2  1  0  0  0  0
  2  3  1  0  0  0  0
  2 17  1  0  0  0  0
  3  4  2  0  0  0  0
  3  5  1  0  0  0  0
  5  6  1  0  0  0  0
  6  7  1  0  0  0  0
  7  8  1  0  0  0  0
  7 12  2  0  0  0  0
  8  9  2  0  0  0  0
  9 10  1  0  0  0  0
 10 11  2  0  0  0  0
 11 12  1  0  0  0  0
 11 13  1  0  0  0  0
 13 14  2  0  0  0  0
 13 15  2  0  0  0  0
 13 16  1  0  0  0  0
 17 18  1  0  0  0  0
 17 22  2  0  0  0  0
 18 19  2  0  0  0  0
 19 20  1  0  0  0  0
 20 21  1  0  0  0  0
 20 22  1  0  0  0  0
M  END
>  <NScode>
NS-025061438-0000

>  <a_acc>
4

>  <a_don>
1

>  <chiral>
1

>  <opr_nrot>
5

>  <Weight>
321.401

>  <druglike>
1

>  <lip_druglike>
1

>  <lip_violation>
0

>  <logS>
-2.0328901

$$$$
