NS-000564837-0012
  MOE2022           3D

 13 12  0  0  0  0  0  0  0  0999 V2000
    0.9400   -0.6640   -0.8410 C   0  0  0  0  0  0  0  0  0  0  0  0
   -0.4600   -1.2230   -0.8640 C   0  0  0  0  0  0  0  0  0  0  0  0
    1.1480    0.3550    0.2500 C   0  0  0  0  0  0  0  0  0  0  0  0
   -0.9590   -2.2910    0.1380 C   0  0  0  0  0  0  0  0  0  0  0  0
    0.6330    1.8120    0.1540 C   0  0  0  0  0  0  0  0  0  0  0  0
   -1.2240   -0.7410   -1.6560 O   0  0  0  0  0  0  0  0  0  0  0  0
    1.6700   -0.0310    1.2610 O   0  0  0  0  0  0  0  0  0  0  0  0
   -2.1010   -3.1260   -0.4860 C   0  0  0  0  0  0  0  0  0  0  0  0
    0.1620   -3.2720    0.5480 C   0  0  0  0  0  0  0  0  0  0  0  0
   -1.5030   -1.6140    1.4120 C   0  0  0  0  0  0  0  0  0  0  0  0
    0.6500    2.3410   -1.2980 C   0  0  0  0  0  0  0  0  0  0  0  0
    1.5200    2.7530    1.0010 C   0  0  0  0  0  0  0  0  0  0  0  0
   -0.8100    1.9030    0.6890 C   0  0  0  0  0  0  0  0  0  0  0  0
  1  2  1  0  0  0  0
  1  3  1  0  0  0  0
  2  4  1  0  0  0  0
  2  6  2  0  0  0  0
  3  5  1  0  0  0  0
  3  7  2  0  0  0  0
  4  8  1  0  0  0  0
  4  9  1  0  0  0  0
  4 10  1  0  0  0  0
  5 11  1  0  0  0  0
  5 12  1  0  0  0  0
  5 13  1  0  0  0  0
M  END
>  <NScode>
NS-000564837-0012

>  <a_acc>
0

>  <a_don>
0

>  <chiral>
0

>  <opr_nrot>
3

>  <Weight>
183.271

>  <druglike>
1

>  <lip_druglike>
1

>  <lip_violation>
0

>  <logS>
-1.58758

$$$$
