NS-018383649-0000
  MOE2022           3D

 21 22  0  0  1  0  0  0  0  0999 V2000
   -1.0590    0.6050    0.4890 N   0  0  0  0  0  0  0  0  0  0  0  0
    0.0670    1.1730    0.9980 C   0  0  0  0  0  0  0  0  0  0  0  0
   -2.3250    1.3710    0.4850 C   0  0  0  0  0  0  0  0  0  0  0  0
   -1.0460   -0.6130   -0.3460 C   0  0  0  0  0  0  0  0  0  0  0  0
   -0.0150    2.2650    1.5610 O   0  0  0  0  0  0  0  0  0  0  0  0
    1.4430    0.4740    0.9620 C   0  0  3  0  0  0  0  0  0  0  0  0
    1.8320   -0.0170   -0.3910 O   0  0  0  0  0  0  0  0  0  0  0  0
   -2.3080   -1.4720   -0.1890 C   0  0  0  0  0  0  0  0  0  0  0  0
   -3.5650    0.4850    0.6430 C   0  0  0  0  0  0  0  0  0  0  0  0
   -3.5930   -0.6580   -0.3690 C   0  0  0  0  0  0  0  0  0  0  0  0
    3.2360   -0.3230   -0.6330 C   0  0  0  0  0  0  0  0  0  0  0  0
    4.1530    0.8460   -0.3370 C   0  0  0  0  0  0  0  0  0  0  0  0
   -4.7460   -1.4350   -0.0890 O   0  0  0  0  0  0  0  0  0  0  0  0
    1.5810   -0.6510    2.0050 C   0  0  0  0  0  0  0  0  0  0  0  0
   -5.1140   -2.3490   -1.1070 C   0  0  0  0  0  0  0  0  0  0  0  0
    5.2510    0.6890    0.5090 C   0  0  0  0  0  0  0  0  0  0  0  0
    3.9060    2.0910   -0.9140 C   0  0  0  0  0  0  0  0  0  0  0  0
   -6.4050   -3.0250   -0.6600 C   0  0  0  0  0  0  0  0  0  0  0  0
    4.7460    3.1680   -0.6470 C   0  0  0  0  0  0  0  0  0  0  0  0
    6.0910    1.7660    0.7750 C   0  0  0  0  0  0  0  0  0  0  0  0
    5.8390    3.0060    0.1970 C   0  0  0  0  0  0  0  0  0  0  0  0
  1  2  1  0  0  0  0
  1  3  1  0  0  0  0
  1  4  1  0  0  0  0
  2  5  2  0  0  0  0
  2  6  1  0  0  0  0
  3  9  1  0  0  0  0
  4  8  1  0  0  0  0
  6  7  1  0  0  0  0
  6 14  1  0  0  0  0
  7 11  1  0  0  0  0
  8 10  1  0  0  0  0
  9 10  1  0  0  0  0
 10 13  1  0  0  0  0
 11 12  1  0  0  0  0
 12 16  1  0  0  0  0
 12 17  2  0  0  0  0
 13 15  1  0  0  0  0
 15 18  1  0  0  0  0
 16 20  2  0  0  0  0
 17 19  1  0  0  0  0
 19 21  2  0  0  0  0
 20 21  1  0  0  0  0
M  END
>  <NScode>
NS-018383649-0000

>  <a_acc>
3

>  <a_don>
0

>  <chiral>
1

>  <opr_nrot>
8

>  <Weight>
291.39099

>  <druglike>
1

>  <lip_druglike>
1

>  <lip_violation>
0

>  <logS>
-2.9171

$$$$
