NS-018361988-0000
  MOE2022           3D

 25 26  0  0  0  0  0  0  0  0999 V2000
   -0.2660    0.1280   -0.9530 C   0  0  0  0  0  0  0  0  0  0  0  0
   -5.2590   -0.9510    0.5470 N   0  0  0  0  0  0  0  0  0  0  0  0
    3.8980    1.1810   -0.2990 C   0  0  0  0  0  0  0  0  0  0  0  0
    2.9590    1.7810   -1.1440 C   0  0  0  0  0  0  0  0  0  0  0  0
   -1.2440    0.3750   -0.0590 N   0  0  0  0  0  0  0  0  0  0  0  0
    0.5990    1.1500   -1.0770 N   0  0  0  0  0  0  0  0  0  0  0  0
    3.8420   -0.1630   -0.0280 O   0  0  0  0  0  0  0  0  0  0  0  0
   -0.1710   -0.9160   -1.5820 O   0  0  0  0  0  0  0  0  0  0  0  0
    1.8540    0.9770   -1.7920 C   0  0  0  0  0  0  0  0  0  0  0  0
   -6.4790   -1.8050    0.7200 C   0  0  0  0  0  0  0  0  0  0  0  0
   -7.7280   -1.3780   -0.0850 C   0  0  0  0  0  0  0  0  0  0  0  0
   -3.4380   -0.2360   -0.9880 C   0  0  0  0  0  0  0  0  0  0  0  0
   -3.0150   -0.3970    1.4540 C   0  0  0  0  0  0  0  0  0  0  0  0
   -2.3750   -0.5260    0.0720 C   0  0  0  0  0  0  0  0  0  0  0  0
   -4.2600   -1.2830    1.5800 C   0  0  0  0  0  0  0  0  0  0  0  0
   -4.6770   -1.1190   -0.8040 C   0  0  0  0  0  0  0  0  0  0  0  0
   -8.8530   -1.9040    0.4540 F   0  0  0  0  0  0  0  0  0  0  0  0
   -7.6910   -1.8350   -1.3640 F   0  0  0  0  0  0  0  0  0  0  0  0
    2.9040   -0.6690    0.9450 C   0  0  0  0  0  0  0  0  0  0  0  0
    3.0530    3.1530   -1.3800 C   0  0  0  0  0  0  0  0  0  0  0  0
    4.9220    1.9210    0.2850 C   0  0  0  0  0  0  0  0  0  0  0  0
    3.5190   -0.6270    2.3430 C   0  0  0  0  0  0  0  0  0  0  0  0
    2.5090   -2.0980    0.5800 C   0  0  0  0  0  0  0  0  0  0  0  0
    4.0700    3.9030   -0.7910 C   0  0  0  0  0  0  0  0  0  0  0  0
    5.0050    3.2880    0.0390 C   0  0  0  0  0  0  0  0  0  0  0  0
  1  5  1  0  0  0  0
  1  6  1  0  0  0  0
  1  8  2  0  0  0  0
  2 10  1  0  0  0  0
  2 15  1  0  0  0  0
  2 16  1  0  0  0  0
  3  4  2  0  0  0  0
  3  7  1  0  0  0  0
  3 21  1  0  0  0  0
  4  9  1  0  0  0  0
  4 20  1  0  0  0  0
  5 14  1  0  0  0  0
  6  9  1  0  0  0  0
  7 19  1  0  0  0  0
 10 11  1  0  0  0  0
 11 17  1  0  0  0  0
 11 18  1  0  0  0  0
 12 14  1  0  0  0  0
 12 16  1  0  0  0  0
 13 14  1  0  0  0  0
 13 15  1  0  0  0  0
 19 22  1  0  0  0  0
 19 23  1  0  0  0  0
 20 24  2  0  0  0  0
 21 25  2  0  0  0  0
 24 25  1  0  0  0  0
M  END
>  <NScode>
NS-018361988-0000

>  <a_acc>
3

>  <a_don>
2

>  <chiral>
0

>  <opr_nrot>
9

>  <Weight>
355.42899

>  <druglike>
1

>  <lip_druglike>
1

>  <lip_violation>
0

>  <logS>
-3.0554099

$$$$
