NS-012298355-0000
  MOE2022           3D

 20 22  0  0  0  0  0  0  0  0999 V2000
    2.5980    0.6840   -0.0820 C   0  0  0  0  0  0  0  0  0  0  0  0
    3.7870   -0.1030   -0.0440 C   0  0  0  0  0  0  0  0  0  0  0  0
    3.8210   -1.5080    0.0410 N   0  0  0  0  0  0  0  0  0  0  0  0
    2.7910    2.0400   -0.1840 C   0  0  0  0  0  0  0  0  0  0  0  0
    1.2210    0.4280   -0.0220 N   0  0  0  0  0  0  0  0  0  0  0  0
    1.5670    2.5950   -0.1960 N   0  0  0  0  0  0  0  0  0  0  0  0
    4.9710    0.5050   -0.0930 N   0  0  0  0  0  0  0  0  0  0  0  0
    3.9880    2.6580   -0.2440 N   0  0  0  0  0  0  0  0  0  0  0  0
    0.6520    1.5890   -0.0950 C   0  0  0  0  0  0  0  0  0  0  0  0
    3.9170   -5.8980    0.4410 C   0  0  0  0  0  0  0  0  0  0  0  0
    5.0360    1.8560   -0.1960 C   0  0  0  0  0  0  0  0  0  0  0  0
    2.5500   -2.2530    0.0440 C   0  0  0  0  0  0  0  0  0  0  0  0
    4.9520   -2.1320    0.7620 C   0  0  0  0  0  0  0  0  0  0  0  0
    3.7760   -4.3940    0.6940 C   0  0  0  0  0  0  0  0  0  0  0  0
    3.4940   -6.7140    1.2590 O   0  0  0  0  0  0  0  0  0  0  0  0
    2.7250   -3.7520   -0.2240 C   0  0  0  0  0  0  0  0  0  0  0  0
    5.0940   -3.6320    0.4810 C   0  0  0  0  0  0  0  0  0  0  0  0
    4.5040   -6.3100   -0.6990 O   0  0  0  0  0  0  0  0  0  0  0  0
    4.6990   -7.7100   -1.0050 C   0  0  0  0  0  0  0  0  0  0  0  0
    5.9450   -8.2730   -0.3240 C   0  0  0  0  0  0  0  0  0  0  0  0
  1  2  2  0  0  0  0
  1  4  1  0  0  0  0
  1  5  1  0  0  0  0
  2  3  1  0  0  0  0
  2  7  1  0  0  0  0
  3 12  1  0  0  0  0
  3 13  1  0  0  0  0
  4  6  1  0  0  0  0
  4  8  2  0  0  0  0
  5  9  2  0  0  0  0
  6  9  1  0  0  0  0
  7 11  2  0  0  0  0
  8 11  1  0  0  0  0
 10 14  1  0  0  0  0
 10 15  2  0  0  0  0
 10 18  1  0  0  0  0
 12 16  1  0  0  0  0
 13 17  1  0  0  0  0
 14 16  1  0  0  0  0
 14 17  1  0  0  0  0
 18 19  1  0  0  0  0
 19 20  1  0  0  0  0
M  END
>  <NScode>
NS-012298355-0000

>  <a_acc>
5

>  <a_don>
3

>  <chiral>
0

>  <opr_nrot>
5

>  <Weight>
275.31198

>  <druglike>
1

>  <lip_druglike>
1

>  <lip_violation>
0

>  <logS>
-2.7548499

$$$$
