NS-006742801-0000
  MOE2022           3D

 27 29  0  0  1  0  0  0  0  0999 V2000
   -4.1930   -1.4090   -0.2960 C   0  0  0  0  0  0  0  0  0  0  0  0
   -4.0940    0.0790   -0.6450 C   0  0  3  0  0  0  0  0  0  0  0  0
   -2.8960    0.6620   -0.0710 N   0  0  0  0  0  0  0  0  0  0  0  0
   -1.6970    0.5940   -0.6560 C   0  0  0  0  0  0  0  0  0  0  0  0
   -1.5430   -0.0100   -1.7130 O   0  0  0  0  0  0  0  0  0  0  0  0
   -0.5360    1.3010    0.0320 C   0  0  0  0  0  0  0  0  0  0  0  0
    0.7120    0.5160    0.1110 N   0  0  0  0  0  0  0  0  0  0  0  0
    1.7190    0.8130    0.9870 C   0  0  0  0  0  0  0  0  0  0  0  0
    1.4950    1.7040    1.7980 O   0  0  0  0  0  0  0  0  0  0  0  0
    2.9930    0.0840    0.9160 C   0  0  0  0  0  0  0  0  0  0  0  0
    4.1180    0.5820    1.6280 C   0  0  0  0  0  0  0  0  0  0  0  0
    5.3300   -0.0610    1.5770 C   0  0  0  0  0  0  0  0  0  0  0  0
    5.4900   -1.2430    0.8120 C   0  0  0  0  0  0  0  0  0  0  0  0
    6.7310   -1.9230    0.7380 C   0  0  0  0  0  0  0  0  0  0  0  0
    6.8580   -3.0680   -0.0120 C   0  0  0  0  0  0  0  0  0  0  0  0
    5.7510   -3.5830   -0.7180 C   0  0  0  0  0  0  0  0  0  0  0  0
    4.5360   -2.9430   -0.6610 C   0  0  0  0  0  0  0  0  0  0  0  0
    4.3770   -1.7580    0.1040 C   0  0  0  0  0  0  0  0  0  0  0  0
    3.1360   -1.0800    0.1740 C   0  0  0  0  0  0  0  0  0  0  0  0
   -5.3150    0.8500   -0.1680 C   0  0  0  0  0  0  0  0  0  0  0  0
   -5.6210    0.9310    1.1980 C   0  0  0  0  0  0  0  0  0  0  0  0
   -6.7380    1.6480    1.6290 C   0  0  0  0  0  0  0  0  0  0  0  0
   -7.5430    2.2790    0.6860 C   0  0  0  0  0  0  0  0  0  0  0  0
   -8.6210    2.9720    1.1110 F   0  0  0  0  0  0  0  0  0  0  0  0
   -7.2770    2.2200   -0.6720 C   0  0  0  0  0  0  0  0  0  0  0  0
   -6.1590    1.5000   -1.0740 C   0  0  0  0  0  0  0  0  0  0  0  0
   -5.9020    1.4420   -2.4020 F   0  0  0  0  0  0  0  0  0  0  0  0
  1  2  1  0  0  0  0
  2  3  1  0  0  0  0
  2 20  1  0  0  0  0
  3  4  1  0  0  0  0
  4  5  2  0  0  0  0
  4  6  1  0  0  0  0
  6  7  1  0  0  0  0
  7  8  1  0  0  0  0
  8  9  2  0  0  0  0
  8 10  1  0  0  0  0
 10 11  1  0  0  0  0
 10 19  2  0  0  0  0
 11 12  2  0  0  0  0
 12 13  1  0  0  0  0
 13 14  1  0  0  0  0
 13 18  2  0  0  0  0
 14 15  2  0  0  0  0
 15 16  1  0  0  0  0
 16 17  2  0  0  0  0
 17 18  1  0  0  0  0
 18 19  1  0  0  0  0
 20 21  1  0  0  0  0
 20 26  2  0  0  0  0
 21 22  2  0  0  0  0
 22 23  1  0  0  0  0
 23 24  1  0  0  0  0
 23 25  2  0  0  0  0
 25 26  1  0  0  0  0
 26 27  1  0  0  0  0
M  END
>  <NScode>
NS-006742801-0000

>  <a_acc>
2

>  <a_don>
2

>  <chiral>
1

>  <opr_nrot>
5

>  <Weight>
368.383

>  <druglike>
1

>  <lip_druglike>
1

>  <lip_violation>
0

>  <logS>
-6.26653

$$$$
