NS-014290752-0000
  MOE2022           3D

 34 37  0  0  0  0  0  0  0  0999 V2000
   -1.1960   -1.0680   -0.3890 C   0  0  0  0  0  0  0  0  0  0  0  0
    0.4010    0.2440   -1.6200 N   0  0  0  0  0  0  0  0  0  0  0  0
   -0.1380   -1.8810    0.1410 C   0  0  0  0  0  0  0  0  0  0  0  0
   -0.8900   -0.0510   -1.2670 C   0  0  0  0  0  0  0  0  0  0  0  0
    1.2320   -1.5530   -0.1970 C   0  0  0  0  0  0  0  0  0  0  0  0
    1.4990   -0.4940   -1.0890 C   0  0  0  0  0  0  0  0  0  0  0  0
   -2.5830   -1.3150   -0.0460 C   0  0  0  0  0  0  0  0  0  0  0  0
    1.2480    2.6320   -2.0320 C   0  0  0  0  0  0  0  0  0  0  0  0
    0.6060    1.3710   -2.5940 C   0  0  0  0  0  0  0  0  0  0  0  0
    2.8210   -0.1650   -1.4420 C   0  0  0  0  0  0  0  0  0  0  0  0
    2.3180   -2.2620    0.3460 C   0  0  0  0  0  0  0  0  0  0  0  0
   -3.0360   -1.7950    1.2630 C   0  0  0  0  0  0  0  0  0  0  0  0
    1.1670    2.8070   -0.6740 N   0  0  0  0  0  0  0  0  0  0  0  0
   -0.3730   -2.8520    0.8660 O   0  0  0  0  0  0  0  0  0  0  0  0
   -3.4460   -1.0550   -0.8830 O   0  0  0  0  0  0  0  0  0  0  0  0
    1.8440    3.4240   -2.7320 O   0  0  0  0  0  0  0  0  0  0  0  0
   -4.1360   -2.6700    1.3460 C   0  0  0  0  0  0  0  0  0  0  0  0
   -2.4120   -1.3720    2.4540 C   0  0  0  0  0  0  0  0  0  0  0  0
    1.7140    3.8580    0.0960 C   0  0  0  0  0  0  0  0  0  0  0  0
    3.6160   -1.9210    0.0030 C   0  0  0  0  0  0  0  0  0  0  0  0
    3.8760   -0.8760   -0.8940 C   0  0  0  0  0  0  0  0  0  0  0  0
   -3.9480   -2.6890    3.7310 C   0  0  0  0  0  0  0  0  0  0  0  0
    2.7690    5.8360    1.6880 C   0  0  0  0  0  0  0  0  0  0  0  0
   -2.8650   -1.8210    3.6900 C   0  0  0  0  0  0  0  0  0  0  0  0
   -4.5940   -3.1220    2.5800 C   0  0  0  0  0  0  0  0  0  0  0  0
    3.2890    6.8050    2.4690 F   0  0  0  0  0  0  0  0  0  0  0  0
   -4.3930   -3.1280    4.9370 F   0  0  0  0  0  0  0  0  0  0  0  0
    2.1890    3.5330    1.3710 C   0  0  0  0  0  0  0  0  0  0  0  0
    1.7600    5.1740   -0.3820 C   0  0  0  0  0  0  0  0  0  0  0  0
    2.2960    6.1740    0.4250 C   0  0  0  0  0  0  0  0  0  0  0  0
    2.7250    4.5340    2.1760 C   0  0  0  0  0  0  0  0  0  0  0  0
    4.6310   -2.6500    0.5810 O   0  0  0  0  0  0  0  0  0  0  0  0
    6.0410   -2.4400    0.3620 C   0  0  0  0  0  0  0  0  0  0  0  0
    6.8760   -3.4320    1.1660 C   0  0  0  0  0  0  0  0  0  0  0  0
  1  3  1  0  0  0  0
  1  4  2  0  0  0  0
  1  7  1  0  0  0  0
  2  4  1  0  0  0  0
  2  6  1  0  0  0  0
  2  9  1  0  0  0  0
  3  5  1  0  0  0  0
  3 14  2  0  0  0  0
  5  6  2  0  0  0  0
  5 11  1  0  0  0  0
  6 10  1  0  0  0  0
  7 12  1  0  0  0  0
  7 15  2  0  0  0  0
  8  9  1  0  0  0  0
  8 13  1  0  0  0  0
  8 16  2  0  0  0  0
 10 21  2  0  0  0  0
 11 20  2  0  0  0  0
 12 17  1  0  0  0  0
 12 18  2  0  0  0  0
 13 19  1  0  0  0  0
 17 25  2  0  0  0  0
 18 24  1  0  0  0  0
 19 28  1  0  0  0  0
 19 29  2  0  0  0  0
 20 21  1  0  0  0  0
 20 32  1  0  0  0  0
 22 24  2  0  0  0  0
 22 25  1  0  0  0  0
 22 27  1  0  0  0  0
 23 26  1  0  0  0  0
 23 30  2  0  0  0  0
 23 31  1  0  0  0  0
 28 31  2  0  0  0  0
 29 30  1  0  0  0  0
 32 33  1  0  0  0  0
 33 34  1  0  0  0  0
M  END
>  <NScode>
NS-014290752-0000

>  <a_acc>
4

>  <a_don>
1

>  <chiral>
0

>  <opr_nrot>
7

>  <Weight>
462.452

>  <druglike>
0

>  <lip_druglike>
1

>  <lip_violation>
0

>  <logS>
-7.1114302

$$$$
