NS-000520709-0001
  MOE2022           3D

  9  9  0  0  1  0  0  0  0  0999 V2000
    1.2670   -0.9910    0.1770 N   0  3  0  0  0  0  0  0  0  0  0  0
    1.3550    0.3590   -0.4380 C   0  0  0  0  0  0  0  0  0  0  0  0
    0.2120   -1.7970   -0.4560 C   0  0  2  0  0  0  0  0  0  0  0  0
   -1.1700   -1.1420   -0.2660 C   0  0  0  0  0  0  0  0  0  0  0  0
   -1.1260    0.3140    0.2360 C   0  0  0  0  0  0  0  0  0  0  0  0
    0.0030    1.1060   -0.4570 C   0  0  1  0  0  0  0  0  0  0  0  0
    0.1940    2.5080    0.1590 C   0  0  0  0  0  0  0  0  0  0  0  0
    0.2340   -3.2040    0.1290 C   0  0  0  0  0  0  0  0  0  0  0  0
   -1.0490    3.4000    0.0430 C   0  0  0  0  0  0  0  0  0  0  0  0
  1  2  1  0  0  0  0
  1  3  1  0  0  0  0
  2  6  1  0  0  0  0
  3  4  1  0  0  0  0
  3  8  1  0  0  0  0
  4  5  1  0  0  0  0
  5  6  1  0  0  0  0
  6  7  1  0  0  0  0
  7  9  1  0  0  0  0
M  CHG  1   1   1
M  END
>  <NScode>
NS-000520709-0001

>  <a_acc>
1

>  <a_don>
1

>  <chiral>
2

>  <opr_nrot>
3

>  <Weight>
127.231

>  <druglike>
0

>  <lip_druglike>
1

>  <lip_violation>
0

>  <logS>
-1.15583

$$$$
