NS-021517229-0001
  MOE2022           3D

 22 24  0  0  1  0  0  0  0  0999 V2000
    9.8110   -1.3220    1.1320 S   0  0  0  0  0  0  0  0  0  0  0  0
    3.5580    1.0330    0.5260 N   0  0  0  0  0  0  0  0  0  0  0  0
    8.4040   -0.4620    1.0370 N   0  0  0  0  0  0  0  0  0  0  0  0
    5.9610   -0.2570    0.3860 C   0  0  0  0  0  0  0  0  0  0  0  0
    5.8780    0.9580    1.0400 C   0  0  0  0  0  0  0  0  0  0  0  0
    3.7080   -0.1430   -0.0780 C   0  0  0  0  0  0  0  0  0  0  0  0
    4.6290    1.5830    1.0670 C   0  0  0  0  0  0  0  0  0  0  0  0
    4.8680   -0.7840   -0.1760 N   0  0  0  0  0  0  0  0  0  0  0  0
    7.2730   -1.0310    0.2860 C   0  0  0  0  0  0  0  0  0  0  0  0
    7.0980    1.5140    1.7540 C   0  0  0  0  0  0  0  0  0  0  0  0
    9.4890   -2.6800    1.3900 O   0  0  0  0  0  0  0  0  0  0  0  0
   10.6870   -0.6720    2.0410 O   0  0  0  0  0  0  0  0  0  0  0  0
    8.4040    1.0000    1.1380 C   0  0  0  0  0  0  0  0  0  0  0  0
    2.4600   -0.7760   -0.6980 C   0  0  3  0  0  0  0  0  0  0  0  0
    1.4070    0.2130   -1.1100 N   0  3  0  0  0  0  0  0  0  0  0  0
    4.3960    2.7900    1.6520 N   0  0  0  0  0  0  0  0  0  0  0  0
   10.5440   -1.2450   -0.5020 C   0  0  0  0  0  0  0  0  0  0  0  0
    0.0870   -0.3540   -0.7910 C   0  0  0  0  0  0  0  0  0  0  0  0
    1.7360   -1.7220    0.2700 C   0  0  0  0  0  0  0  0  0  0  0  0
    4.8200    3.9840    0.9120 C   0  0  0  0  0  0  0  0  0  0  0  0
   10.5740    0.0980   -1.2660 C   0  0  0  0  0  0  0  0  0  0  0  0
    0.3280   -1.1360    0.5010 C   0  0  0  0  0  0  0  0  0  0  0  0
  1  3  1  0  0  0  0
  1 11  2  0  0  0  0
  1 12  2  0  0  0  0
  1 17  1  0  0  0  0
  2  6  2  0  0  0  0
  2  7  1  0  0  0  0
  3  9  1  0  0  0  0
  3 13  1  0  0  0  0
  4  5  1  0  0  0  0
  4  8  2  0  0  0  0
  4  9  1  0  0  0  0
  5  7  2  0  0  0  0
  5 10  1  0  0  0  0
  6  8  1  0  0  0  0
  6 14  1  0  0  0  0
  7 16  1  0  0  0  0
 10 13  1  0  0  0  0
 14 15  1  0  0  0  0
 14 19  1  0  0  0  0
 15 18  1  0  0  0  0
 16 20  1  0  0  0  0
 17 21  1  0  0  0  0
 18 22  1  0  0  0  0
 19 22  1  0  0  0  0
M  CHG  1  15   1
M  END
>  <NScode>
NS-021517229-0001

>  <a_acc>
5

>  <a_don>
2

>  <chiral>
1

>  <opr_nrot>
5

>  <Weight>
325.43701

>  <druglike>
1

>  <lip_druglike>
1

>  <lip_violation>
0

>  <logS>
-1.04176

$$$$
