NS-000534866-0000
  MOE2022           3D

 20 22  0  0  0  0  0  0  0  0999 V2000
   -0.2310   -3.7590   -0.0180 C   0  0  0  0  0  0  0  0  0  0  0  0
    1.9640   -3.7300    0.3120 N   0  0  0  0  0  0  0  0  0  0  0  0
    0.9090   -2.9720    0.2170 C   0  0  0  0  0  0  0  0  0  0  0  0
    0.2470   -5.0260   -0.0330 C   0  0  0  0  0  0  0  0  0  0  0  0
    1.5620   -5.0080    0.1660 O   0  0  0  0  0  0  0  0  0  0  0  0
   -1.6100   -3.3480   -0.2330 C   0  0  0  0  0  0  0  0  0  0  0  0
    0.9710   -1.5170    0.3550 C   0  0  0  0  0  0  0  0  0  0  0  0
   -0.3980   -6.2350   -0.2330 N   0  0  0  0  0  0  0  0  0  0  0  0
   -1.9270   -2.3130   -1.1260 C   0  0  0  0  0  0  0  0  0  0  0  0
   -2.6620   -3.9820    0.4460 C   0  0  0  0  0  0  0  0  0  0  0  0
    2.0480   -0.7990   -0.1950 C   0  0  0  0  0  0  0  0  0  0  0  0
   -0.0310   -0.8070    1.0430 C   0  0  0  0  0  0  0  0  0  0  0  0
    1.1040    1.2510    0.5970 C   0  0  0  0  0  0  0  0  0  0  0  0
   -4.2770   -2.5640   -0.6460 C   0  0  0  0  0  0  0  0  0  0  0  0
    2.1170    0.5860   -0.0790 C   0  0  0  0  0  0  0  0  0  0  0  0
   -3.2450   -1.9230   -1.3320 C   0  0  0  0  0  0  0  0  0  0  0  0
    0.0300    0.5780    1.1630 C   0  0  0  0  0  0  0  0  0  0  0  0
   -3.9820   -3.5960    0.2440 C   0  0  0  0  0  0  0  0  0  0  0  0
   -5.9200   -2.0790   -0.9000 Cl  0  0  0  0  0  0  0  0  0  0  0  0
    1.1650    2.5990    0.7090 F   0  0  0  0  0  0  0  0  0  0  0  0
  1  3  1  0  0  0  0
  1  4  2  0  0  0  0
  1  6  1  0  0  0  0
  2  3  2  0  0  0  0
  2  5  1  0  0  0  0
  3  7  1  0  0  0  0
  4  5  1  0  0  0  0
  4  8  1  0  0  0  0
  6  9  2  0  0  0  0
  6 10  1  0  0  0  0
  7 11  2  0  0  0  0
  7 12  1  0  0  0  0
  9 16  1  0  0  0  0
 10 18  2  0  0  0  0
 11 15  1  0  0  0  0
 12 17  2  0  0  0  0
 13 15  2  0  0  0  0
 13 17  1  0  0  0  0
 13 20  1  0  0  0  0
 14 16  2  0  0  0  0
 14 18  1  0  0  0  0
 14 19  1  0  0  0  0
M  END
>  <NScode>
NS-000534866-0000

>  <a_acc>
1

>  <a_don>
1

>  <chiral>
0

>  <opr_nrot>
2

>  <Weight>
288.70898

>  <druglike>
1

>  <lip_druglike>
1

>  <lip_violation>
0

>  <logS>
-5.9141998

$$$$
