NS-019587754-0000
  MOE2022           3D

 24 26  0  0  0  0  0  0  0  0999 V2000
    1.9490    1.1400    0.3780 S   0  0  0  0  0  0  0  0  0  0  0  0
   -0.8550   -2.7340   -0.9570 C   0  0  0  0  0  0  0  0  0  0  0  0
    1.1240    2.5710    0.3460 N   0  0  0  0  0  0  0  0  0  0  0  0
    0.1960   -1.9260   -1.7000 C   0  0  0  0  0  0  0  0  0  0  0  0
   -0.6680   -4.2350   -0.9070 C   0  0  0  0  0  0  0  0  0  0  0  0
   -1.7570   -3.6560   -1.7490 C   0  0  0  0  0  0  0  0  0  0  0  0
    2.0020    0.6200   -1.3210 C   0  0  0  0  0  0  0  0  0  0  0  0
    1.2000    0.1880    1.1240 O   0  0  0  0  0  0  0  0  0  0  0  0
    3.2860    1.3710    0.7990 O   0  0  0  0  0  0  0  0  0  0  0  0
   -1.4390   -2.0450    0.2980 C   0  0  0  0  0  0  0  0  0  0  0  0
   -0.5090    5.3260    0.0360 S   0  0  0  0  0  0  0  0  0  0  0  0
    0.0080   -1.4010   -2.7800 O   0  0  0  0  0  0  0  0  0  0  0  0
    1.3970   -1.7720   -1.0900 N   0  0  0  0  0  0  0  0  0  0  0  0
    1.7990    3.7750   -0.1750 C   0  0  0  0  0  0  0  0  0  0  0  0
   -0.3230    2.5390    0.0390 C   0  0  0  0  0  0  0  0  0  0  0  0
    2.4070   -0.8360   -1.5620 C   0  0  0  0  0  0  0  0  0  0  0  0
   -2.2740   -0.7880    0.0890 C   0  0  0  0  0  0  0  0  0  0  0  0
    1.2580    5.0840    0.4210 C   0  0  0  0  0  0  0  0  0  0  0  0
   -1.1060    3.7130    0.6450 C   0  0  0  0  0  0  0  0  0  0  0  0
   -2.6980   -0.3570   -1.1860 C   0  0  0  0  0  0  0  0  0  0  0  0
   -2.6780   -0.0670    1.2310 C   0  0  0  0  0  0  0  0  0  0  0  0
   -3.4920    1.0720    1.1020 C   0  0  0  0  0  0  0  0  0  0  0  0
   -3.5030    0.7890   -1.3140 C   0  0  0  0  0  0  0  0  0  0  0  0
   -3.9040    1.5010   -0.1710 C   0  0  0  0  0  0  0  0  0  0  0  0
  1  3  1  0  0  0  0
  1  7  1  0  0  0  0
  1  8  2  0  0  0  0
  1  9  2  0  0  0  0
  2  4  1  0  0  0  0
  2  5  1  0  0  0  0
  2  6  1  0  0  0  0
  2 10  1  0  0  0  0
  3 14  1  0  0  0  0
  3 15  1  0  0  0  0
  4 12  2  0  0  0  0
  4 13  1  0  0  0  0
  5  6  1  0  0  0  0
  7 16  1  0  0  0  0
 10 17  1  0  0  0  0
 11 18  1  0  0  0  0
 11 19  1  0  0  0  0
 13 16  1  0  0  0  0
 14 18  1  0  0  0  0
 15 19  1  0  0  0  0
 17 20  1  0  0  0  0
 17 21  2  0  0  0  0
 20 23  2  0  0  0  0
 21 22  1  0  0  0  0
 22 24  2  0  0  0  0
 23 24  1  0  0  0  0
M  END
>  <NScode>
NS-019587754-0000

>  <a_acc>
3

>  <a_don>
1

>  <chiral>
0

>  <opr_nrot>
8

>  <Weight>
368.522

>  <druglike>
1

>  <lip_druglike>
1

>  <lip_violation>
0

>  <logS>
-2.8006599

$$$$
