NS-042213900-0000
  MOE2022           3D

 16 16  0  0  0  0  0  0  0  0999 V2000
    0.0710    4.3040    0.1530 C   0  0  0  0  0  0  0  0  0  0  0  0
    0.9050    3.2770   -0.4290 O   0  0  0  0  0  0  0  0  0  0  0  0
    0.9400    1.9340   -0.0710 C   0  0  0  0  0  0  0  0  0  0  0  0
    1.7270    1.1100   -0.8700 C   0  0  0  0  0  0  0  0  0  0  0  0
    1.8200   -0.2520   -0.5840 C   0  0  0  0  0  0  0  0  0  0  0  0
    1.1340   -0.8050    0.5020 C   0  0  0  0  0  0  0  0  0  0  0  0
    1.2510   -2.2910    0.8060 C   0  0  0  0  0  0  0  0  0  0  0  0
    0.1680   -3.1800    0.1630 C   0  0  0  0  0  0  0  0  0  0  0  0
    0.2440   -3.0140   -1.2180 F   0  0  0  0  0  0  0  0  0  0  0  0
    0.5770   -4.5000    0.3270 F   0  0  0  0  0  0  0  0  0  0  0  0
   -1.2700   -2.9540    0.7470 C   0  0  0  0  0  0  0  0  0  0  0  0
   -1.3720   -2.6850    1.9750 O   0  5  0  0  0  0  0  0  0  0  0  0
   -2.2870   -3.0340    0.0110 O   0  0  0  0  0  0  0  0  0  0  0  0
    0.3360    0.0170    1.3000 C   0  0  0  0  0  0  0  0  0  0  0  0
    0.2500    1.3730    1.0130 C   0  0  0  0  0  0  0  0  0  0  0  0
   -0.5230    2.1290    1.8330 F   0  0  0  0  0  0  0  0  0  0  0  0
  1  2  1  0  0  0  0
  2  3  1  0  0  0  0
  3  4  1  0  0  0  0
  3 15  2  0  0  0  0
  4  5  2  0  0  0  0
  5  6  1  0  0  0  0
  6  7  1  0  0  0  0
  6 14  2  0  0  0  0
  7  8  1  0  0  0  0
  8  9  1  0  0  0  0
  8 10  1  0  0  0  0
  8 11  1  0  0  0  0
 11 12  1  0  0  0  0
 11 13  2  0  0  0  0
 14 15  1  0  0  0  0
 15 16  1  0  0  0  0
M  CHG  1  12  -1
M  END
>  <NScode>
NS-042213900-0000

>  <a_acc>
2

>  <a_don>
2

>  <chiral>
0

>  <opr_nrot>
4

>  <Weight>
234.17299

>  <druglike>
1

>  <lip_druglike>
1

>  <lip_violation>
0

>  <logS>
-2.4644499

$$$$
