NS-005141747-0000
  MOE2022           3D

 21 23  0  0  0  0  0  0  0  0999 V2000
    2.2280   -1.0640   -0.0020 C   0  0  0  0  0  0  0  0  0  0  0  0
    2.3720    0.3720    0.0430 O   0  0  0  0  0  0  0  0  0  0  0  0
    5.9650    1.1350    0.1220 C   0  0  0  0  0  0  0  0  0  0  0  0
    5.9050    2.5460    0.1520 C   0  0  0  0  0  0  0  0  0  0  0  0
    4.6410    3.1850    0.1290 C   0  0  0  0  0  0  0  0  0  0  0  0
    3.4380    2.4930    0.0730 C   0  0  0  0  0  0  0  0  0  0  0  0
    3.5480    1.0740    0.0610 C   0  0  0  0  0  0  0  0  0  0  0  0
    4.7570    0.4100    0.0790 C   0  0  0  0  0  0  0  0  0  0  0  0
    7.2320    0.4970    0.1390 C   0  0  0  0  0  0  0  0  0  0  0  0
    8.3890    1.2390    0.1860 C   0  0  0  0  0  0  0  0  0  0  0  0
    8.3290    2.6480    0.2180 C   0  0  0  0  0  0  0  0  0  0  0  0
    7.1130    3.2880    0.2020 C   0  0  0  0  0  0  0  0  0  0  0  0
    0.6160    6.1930   -0.7310 C   0  0  0  0  0  0  0  0  0  0  0  0
    0.1890    5.5170    1.6100 C   0  0  0  0  0  0  0  0  0  0  0  0
   -0.7580    3.7950   -1.6870 C   0  0  0  0  0  0  0  0  0  0  0  0
   -1.2410    3.1520    0.6530 C   0  0  0  0  0  0  0  0  0  0  0  0
    1.9400    4.5330    0.3420 O   0  0  0  0  0  0  0  0  0  0  0  0
    2.0630    3.2440    0.0310 B   0  0  0  0  0  0  0  0  0  0  0  0
    0.8830    2.7470   -0.3300 O   0  0  0  0  0  0  0  0  0  0  0  0
   -0.1520    3.7090   -0.2770 C   0  0  0  0  0  0  0  0  0  0  0  0
    0.6040    4.9920    0.2270 C   0  0  0  0  0  0  0  0  0  0  0  0
  1  2  1  0  0  0  0
  2  7  1  0  0  0  0
  3  4  1  0  0  0  0
  3  8  2  0  0  0  0
  3  9  1  0  0  0  0
  4  5  2  0  0  0  0
  4 12  1  0  0  0  0
  5  6  1  0  0  0  0
  6  7  2  0  0  0  0
  6 18  1  0  0  0  0
  7  8  1  0  0  0  0
  9 10  2  0  0  0  0
 10 11  1  0  0  0  0
 11 12  2  0  0  0  0
 13 21  1  0  0  0  0
 14 21  1  0  0  0  0
 15 20  1  0  0  0  0
 16 20  1  0  0  0  0
 17 18  1  0  0  0  0
 17 21  1  0  0  0  0
 18 19  1  0  0  0  0
 19 20  1  0  0  0  0
 20 21  1  0  0  0  0
M  END
>  <NScode>
NS-005141747-0000

>  <a_acc>
3

>  <a_don>
0

>  <chiral>
0

>  <opr_nrot>
3

>  <Weight>
284.16299

>  <druglike>
0

>  <lip_druglike>
1

>  <lip_violation>
0

>  <logS>
-5.0671601

$$$$
