NS-011661648-0000
  MOE2022           3D

 24 26  0  0  0  0  0  0  0  0999 V2000
    8.7080   -1.3790    0.4180 N   0  3  0  0  0  0  0  0  0  0  0  0
    9.1510   -2.3050    1.0740 O   0  5  0  0  0  0  0  0  0  0  0  0
    9.2190   -0.2750    0.5090 O   0  0  0  0  0  0  0  0  0  0  0  0
    6.4860   -0.7120   -0.4680 C   0  0  0  0  0  0  0  0  0  0  0  0
    7.5840   -1.5910   -0.4750 C   0  0  0  0  0  0  0  0  0  0  0  0
    7.6590   -2.6950   -1.3290 C   0  0  0  0  0  0  0  0  0  0  0  0
    6.6150   -2.9280   -2.2160 C   0  0  0  0  0  0  0  0  0  0  0  0
    5.5200   -2.0670   -2.2370 C   0  0  0  0  0  0  0  0  0  0  0  0
    5.4540   -0.9730   -1.3750 C   0  0  0  0  0  0  0  0  0  0  0  0
    6.4160    0.4900    0.4810 C   0  0  0  0  0  0  0  0  0  0  0  0
    1.2180    5.5740   -2.2480 C   0  0  0  0  0  0  0  0  0  0  0  0
    2.1050    6.8720   -0.3380 C   0  0  0  0  0  0  0  0  0  0  0  0
   -0.7830    4.3550   -0.4990 C   0  0  0  0  0  0  0  0  0  0  0  0
    0.0840    5.6760    1.4040 C   0  0  0  0  0  0  0  0  0  0  0  0
    2.6710    4.5860   -0.6470 O   0  0  0  0  0  0  0  0  0  0  0  0
    2.4020    3.5770    0.1810 B   0  0  0  0  0  0  0  0  0  0  0  0
    1.1720    3.6920    0.6750 O   0  0  0  0  0  0  0  0  0  0  0  0
    0.5040    4.8420    0.1840 C   0  0  0  0  0  0  0  0  0  0  0  0
    1.5840    5.4890   -0.7580 C   0  0  0  0  0  0  0  0  0  0  0  0
    5.1000    1.0890    0.6740 N   0  0  0  0  0  0  0  0  0  0  0  0
    4.1570    0.5450    1.4690 N   0  0  0  0  0  0  0  0  0  0  0  0
    3.1430    1.3490    1.3740 C   0  0  0  0  0  0  0  0  0  0  0  0
    3.3780    2.4340    0.5220 C   0  0  0  0  0  0  0  0  0  0  0  0
    4.6600    2.2110    0.0960 C   0  0  0  0  0  0  0  0  0  0  0  0
  1  2  1  0  0  0  0
  1  3  2  0  0  0  0
  1  5  1  0  0  0  0
  4  5  1  0  0  0  0
  4  9  2  0  0  0  0
  4 10  1  0  0  0  0
  5  6  2  0  0  0  0
  6  7  1  0  0  0  0
  7  8  2  0  0  0  0
  8  9  1  0  0  0  0
 10 20  1  0  0  0  0
 11 19  1  0  0  0  0
 12 19  1  0  0  0  0
 13 18  1  0  0  0  0
 14 18  1  0  0  0  0
 15 16  1  0  0  0  0
 15 19  1  0  0  0  0
 16 17  1  0  0  0  0
 16 23  1  0  0  0  0
 17 18  1  0  0  0  0
 18 19  1  0  0  0  0
 20 21  1  0  0  0  0
 20 24  1  0  0  0  0
 21 22  2  0  0  0  0
 22 23  1  0  0  0  0
 23 24  2  0  0  0  0
M  CHG  1   1   1
M  CHG  1   2  -1
M  END
>  <NScode>
NS-011661648-0000

>  <a_acc>
3

>  <a_don>
0

>  <chiral>
0

>  <opr_nrot>
5

>  <Weight>
329.164

>  <druglike>
0

>  <lip_druglike>
1

>  <lip_violation>
0

>  <logS>
-4.0270801

$$$$
