NS-042468725-0000
  MOE2022           3D

 25 27  0  0  1  0  0  0  0  0999 V2000
   -6.9420    1.6110    0.7940 C   0  0  0  0  0  0  0  0  0  0  0  0
   -5.5300    1.5060    1.0890 O   0  0  0  0  0  0  0  0  0  0  0  0
   -4.5170    2.0240    0.3130 C   0  0  0  0  0  0  0  0  0  0  0  0
   -4.7740    2.6780   -0.8970 C   0  0  0  0  0  0  0  0  0  0  0  0
   -3.7070    3.1760   -1.6390 C   0  0  0  0  0  0  0  0  0  0  0  0
   -2.4140    3.0120   -1.1530 C   0  0  0  0  0  0  0  0  0  0  0  0
   -1.3920    3.4950   -1.8960 F   0  0  0  0  0  0  0  0  0  0  0  0
   -2.1410    2.3710    0.0550 C   0  0  0  0  0  0  0  0  0  0  0  0
   -0.7240    2.2070    0.5570 C   0  0  0  0  0  0  0  0  0  0  0  0
   -0.1530    0.9380    0.1300 N   0  0  0  0  0  0  0  0  0  0  0  0
    0.9560    0.4060    0.7110 C   0  0  0  0  0  0  0  0  0  0  0  0
    1.4430    1.0100    1.6570 O   0  0  0  0  0  0  0  0  0  0  0  0
    1.5130   -0.8100    0.1630 C   0  0  0  0  0  0  0  0  0  0  0  0
    2.8070   -1.2000    0.0010 C   0  0  0  0  0  0  0  0  0  0  0  0
    4.0890   -0.4870    0.3550 C   0  0  0  0  0  0  0  0  0  0  0  0
    5.2550   -1.0560   -0.4720 C   0  0  1  0  0  0  0  0  0  0  0  0
    6.6030   -0.5250    0.0090 C   0  0  0  0  0  0  0  0  0  0  0  0
    5.2650   -2.5120   -0.4030 O   0  0  0  0  0  0  0  0  0  0  0  0
    4.0710   -3.2190   -0.9130 C   0  0  1  0  0  0  0  0  0  0  0  0
    4.0810   -4.6490   -0.3690 C   0  0  0  0  0  0  0  0  0  0  0  0
    2.7920   -2.4620   -0.5620 C   0  0  0  0  0  0  0  0  0  0  0  0
    1.5590   -2.8700   -0.7540 N   0  0  0  0  0  0  0  0  0  0  0  0
    0.7810   -1.8700   -0.2890 N   0  0  0  0  0  0  0  0  0  0  0  0
   -0.6620   -2.0330   -0.2840 C   0  0  0  0  0  0  0  0  0  0  0  0
   -3.2150    1.8680    0.7890 C   0  0  0  0  0  0  0  0  0  0  0  0
  1  2  1  0  0  0  0
  2  3  1  0  0  0  0
  3  4  1  0  0  0  0
  3 25  2  0  0  0  0
  4  5  2  0  0  0  0
  5  6  1  0  0  0  0
  6  7  1  0  0  0  0
  6  8  2  0  0  0  0
  8  9  1  0  0  0  0
  8 25  1  0  0  0  0
  9 10  1  0  0  0  0
 10 11  1  0  0  0  0
 11 12  2  0  0  0  0
 11 13  1  0  0  0  0
 13 14  2  0  0  0  0
 13 23  1  0  0  0  0
 14 15  1  0  0  0  0
 14 21  1  0  0  0  0
 15 16  1  0  0  0  0
 16 17  1  0  0  0  0
 16 18  1  0  0  0  0
 18 19  1  0  0  0  0
 19 20  1  0  0  0  0
 19 21  1  0  0  0  0
 21 22  2  0  0  0  0
 22 23  1  0  0  0  0
 23 24  1  0  0  0  0
M  END
>  <NScode>
NS-042468725-0000

>  <a_acc>
4

>  <a_don>
1

>  <chiral>
2

>  <opr_nrot>
5

>  <Weight>
347.38998

>  <druglike>
1

>  <lip_druglike>
1

>  <lip_violation>
0

>  <logS>
-3.2346499

$$$$
