NS-022025438-0000
  MOE2022           3D

 18 18  0  0  1  0  0  0  0  0999 V2000
   -3.4570   -2.5630   -0.8760 C   0  0  0  0  0  0  0  0  0  0  0  0
   -2.8920   -1.6190   -1.7810 O   0  0  0  0  0  0  0  0  0  0  0  0
   -1.6950   -0.9990   -1.3000 C   0  0  0  0  0  0  0  0  0  0  0  0
   -1.8680    0.1700   -0.2690 C   0  0  3  0  0  0  0  0  0  0  0  0
   -3.1990    0.9290   -0.5070 C   0  0  0  0  0  0  0  0  0  0  0  0
   -2.8990    2.0040   -1.5570 C   0  0  0  0  0  0  0  0  0  0  0  0
   -1.4180    2.3340   -1.3880 C   0  0  0  0  0  0  0  0  0  0  0  0
   -0.8160    1.3010   -0.4910 N   0  3  3  0  0  0  0  0  0  0  0  0
    0.6170    0.8860   -0.7590 C   0  0  0  0  0  0  0  0  0  0  0  0
    1.2790    0.0770    0.3560 C   0  0  0  0  0  0  0  0  0  0  0  0
    2.7410   -0.2120    0.0670 C   0  0  0  0  0  0  0  0  0  0  0  0
    3.2290    0.2340   -0.9670 O   0  0  0  0  0  0  0  0  0  0  0  0
    3.4490   -0.9530    0.9430 N   0  0  0  0  0  0  0  0  0  0  0  0
    2.8390   -1.5720    2.1370 C   0  0  0  0  0  0  0  0  0  0  0  0
    4.8500   -1.3050    0.6560 C   0  0  0  0  0  0  0  0  0  0  0  0
   -1.7870   -0.3540    1.1930 C   0  0  0  0  0  0  0  0  0  0  0  0
   -1.4570    0.5360    2.0160 O   0  5  0  0  0  0  0  0  0  0  0  0
   -1.8080   -1.5760    1.4550 O   0  0  0  0  0  0  0  0  0  0  0  0
  1  2  1  0  0  0  0
  2  3  1  0  0  0  0
  3  4  1  0  0  0  0
  4  5  1  0  0  0  0
  4  8  1  0  0  0  0
  4 16  1  0  0  0  0
  5  6  1  0  0  0  0
  6  7  1  0  0  0  0
  7  8  1  0  0  0  0
  8  9  1  0  0  0  0
  9 10  1  0  0  0  0
 10 11  1  0  0  0  0
 11 12  2  0  0  0  0
 11 13  1  0  0  0  0
 13 14  1  0  0  0  0
 13 15  1  0  0  0  0
 16 17  1  0  0  0  0
 16 18  2  0  0  0  0
M  CHG  1   8   1
M  CHG  1  17  -1
M  END
>  <NScode>
NS-022025438-0000

>  <a_acc>
4

>  <a_don>
2

>  <chiral>
1

>  <opr_nrot>
7

>  <Weight>
258.31799

>  <druglike>
1

>  <lip_druglike>
1

>  <lip_violation>
0

>  <logS>
-0.12779

$$$$
