NS-012264314-0002
  MOE2022           3D

 26 28  0  0  1  0  0  0  0  0999 V2000
   -3.7590   -1.0970    0.3860 N   0  0  0  0  0  0  0  0  0  0  0  0
   -4.9470   -1.8600    0.2230 C   0  0  0  0  0  0  0  0  0  0  0  0
   -1.2240    0.5230    0.4680 N   0  3  0  0  0  0  0  0  0  0  0  0
   -6.1970   -1.2400    0.1190 C   0  0  0  0  0  0  0  0  0  0  0  0
   -2.5270   -1.5870   -0.2980 C   0  0  0  0  0  0  0  0  0  0  0  0
   -3.8340    0.3580    0.6920 C   0  0  0  0  0  0  0  0  0  0  0  0
    4.2300    0.9790   -0.7160 C   0  0  0  0  0  0  0  0  0  0  0  0
   -0.2590    1.6480    0.1130 C   0  0  0  0  0  0  0  0  0  0  0  0
    6.4200    0.8170    0.2670 C   0  0  0  0  0  0  0  0  0  0  0  0
    5.4600    2.9900   -0.2250 C   0  0  0  0  0  0  0  0  0  0  0  0
    3.1120    0.3150   -1.1700 O   0  0  0  0  0  0  0  0  0  0  0  0
   -1.5090   -0.4780   -0.6540 C   0  0  0  0  0  0  0  0  0  0  0  0
   -2.5020    0.9590    1.2080 C   0  0  0  0  0  0  0  0  0  0  0  0
   -7.3410   -2.0180   -0.0480 C   0  0  0  0  0  0  0  0  0  0  0  0
    4.3180    2.3720   -0.7270 C   0  0  0  0  0  0  0  0  0  0  0  0
    5.2770    0.2010   -0.2340 C   0  0  0  0  0  0  0  0  0  0  0  0
    1.2300    1.2360    0.1380 C   0  0  3  0  0  0  0  0  0  0  0  0
    6.5060    2.2090    0.2680 C   0  0  0  0  0  0  0  0  0  0  0  0
    1.7840    0.8820   -1.2510 C   0  0  0  0  0  0  0  0  0  0  0  0
   -8.8880   -1.2510   -0.1840 Cl  0  0  0  0  0  0  0  0  0  0  0  0
    1.3870    0.1170    1.0050 O   0  0  0  0  0  0  0  0  0  0  0  0
   -4.8600   -3.2590    0.1730 C   0  0  0  0  0  0  0  0  0  0  0  0
   -6.0090   -4.0240    0.0030 C   0  0  0  0  0  0  0  0  0  0  0  0
   -7.2510   -3.4090   -0.1100 C   0  0  0  0  0  0  0  0  0  0  0  0
    5.5850    4.4970   -0.2340 C   0  0  0  0  0  0  0  0  0  0  0  0
    7.5710   -0.0150    0.7860 C   0  0  0  0  0  0  0  0  0  0  0  0
  1  2  1  0  0  0  0
  1  5  1  0  0  0  0
  1  6  1  0  0  0  0
  2  4  2  0  0  0  0
  2 22  1  0  0  0  0
  3  8  1  0  0  0  0
  3 12  1  0  0  0  0
  3 13  1  0  0  0  0
  4 14  1  0  0  0  0
  5 12  1  0  0  0  0
  6 13  1  0  0  0  0
  7 11  1  0  0  0  0
  7 15  2  0  0  0  0
  7 16  1  0  0  0  0
  8 17  1  0  0  0  0
  9 16  2  0  0  0  0
  9 18  1  0  0  0  0
  9 26  1  0  0  0  0
 10 15  1  0  0  0  0
 10 18  2  0  0  0  0
 10 25  1  0  0  0  0
 11 19  1  0  0  0  0
 14 20  1  0  0  0  0
 14 24  2  0  0  0  0
 17 19  1  0  0  0  0
 17 21  1  0  0  0  0
 22 23  2  0  0  0  0
 23 24  1  0  0  0  0
M  CHG  1   3   1
M  END
>  <NScode>
NS-012264314-0002

>  <a_acc>
3

>  <a_don>
1

>  <chiral>
1

>  <opr_nrot>
8

>  <Weight>
374.91199

>  <druglike>
1

>  <lip_druglike>
1

>  <lip_violation>
0

>  <logS>
-4.6833301

$$$$
