NS-021559904-0000
  MOE2022           3D

 24 26  0  0  1  0  0  0  0  0999 V2000
    4.5270    4.4570    1.1040 C   0  0  0  0  0  0  0  0  0  0  0  0
    5.1660    3.1670    0.8820 C   0  0  0  0  0  0  0  0  0  0  0  0
    4.8030    5.6470    0.3870 C   0  0  0  0  0  0  0  0  0  0  0  0
    4.0560    6.7150    0.7920 C   0  0  0  0  0  0  0  0  0  0  0  0
    5.6100    2.7980   -0.3820 N   0  0  0  0  0  0  0  0  0  0  0  0
    2.9970    6.2860    2.0900 S   0  0  0  0  0  0  0  0  0  0  0  0
    3.5740    4.6630    2.0750 C   0  0  0  0  0  0  0  0  0  0  0  0
    4.2910   -1.2720    0.0210 N   0  3  0  0  0  0  0  0  0  0  0  0
    4.7360    0.1120   -0.4010 C   0  0  1  0  0  0  0  0  0  0  0  0
    6.2530    0.3490   -0.2970 C   0  0  0  0  0  0  0  0  0  0  0  0
    6.6870    1.8060   -0.5320 C   0  0  0  0  0  0  0  0  0  0  0  0
    4.7870    3.0570   -1.5740 C   0  0  0  0  0  0  0  0  0  0  0  0
    3.6640    2.0240   -1.7610 C   0  0  0  0  0  0  0  0  0  0  0  0
    5.2910    2.3150    1.7610 O   0  0  0  0  0  0  0  0  0  0  0  0
    4.1360    0.5610   -1.7690 C   0  0  2  0  0  0  0  0  0  0  0  0
    4.6610   -3.8550    1.3520 O   0  0  0  0  0  0  0  0  0  0  0  0
    4.0800    8.1300    0.2500 C   0  0  0  0  0  0  0  0  0  0  0  0
    3.0060   -0.2480   -2.0860 O   0  0  0  0  0  0  0  0  0  0  0  0
    4.1780   -1.4460    1.5320 C   0  0  0  0  0  0  0  0  0  0  0  0
    5.0270   -2.4400   -0.6260 C   0  0  0  0  0  0  0  0  0  0  0  0
    4.6180   -3.8230   -0.0770 C   0  0  0  0  0  0  0  0  0  0  0  0
    3.8260   -2.8800    1.9820 C   0  0  0  0  0  0  0  0  0  0  0  0
    3.6590    8.1560   -1.2230 C   0  0  0  0  0  0  0  0  0  0  0  0
    5.4660    8.7590    0.4230 C   0  0  0  0  0  0  0  0  0  0  0  0
  1  2  1  0  0  0  0
  1  3  1  0  0  0  0
  1  7  2  0  0  0  0
  2  5  1  0  0  0  0
  2 14  2  0  0  0  0
  3  4  2  0  0  0  0
  4  6  1  0  0  0  0
  4 17  1  0  0  0  0
  5 11  1  0  0  0  0
  5 12  1  0  0  0  0
  6  7  1  0  0  0  0
  8  9  1  0  0  0  0
  8 19  1  0  0  0  0
  8 20  1  0  0  0  0
  9 10  1  0  0  0  0
  9 15  1  0  0  0  0
 10 11  1  0  0  0  0
 12 13  1  0  0  0  0
 13 15  1  0  0  0  0
 15 18  1  0  0  0  0
 16 21  1  0  0  0  0
 16 22  1  0  0  0  0
 17 23  1  0  0  0  0
 17 24  1  0  0  0  0
 19 22  1  0  0  0  0
 20 21  1  0  0  0  0
M  CHG  1   8   1
M  END
>  <NScode>
NS-021559904-0000

>  <a_acc>
4

>  <a_don>
1

>  <chiral>
2

>  <opr_nrot>
8

>  <Weight>
352.49899

>  <druglike>
1

>  <lip_druglike>
1

>  <lip_violation>
0

>  <logS>
-2.3349099

$$$$
