NS-014319651-0000
  MOE2022           3D

 23 27  0  0  0  0  0  0  0  0999 V2000
   -2.7510    4.6340    0.1840 C   0  0  0  0  0  0  0  0  0  0  0  0
   -2.8780    3.3530    0.3750 N   0  0  0  0  0  0  0  0  0  0  0  0
   -4.2000    5.5300   -0.1530 S   0  0  0  0  0  0  0  0  0  0  0  0
   -1.5090    5.2730    0.2460 N   0  0  0  0  0  0  0  0  0  0  0  0
   -4.2040    2.9990    0.2540 C   0  0  0  0  0  0  0  0  0  0  0  0
   -5.0740    4.0520   -0.0330 C   0  0  0  0  0  0  0  0  0  0  0  0
   -4.7240    1.7010    0.3880 C   0  0  0  0  0  0  0  0  0  0  0  0
   -6.4550    3.8660   -0.1890 C   0  0  0  0  0  0  0  0  0  0  0  0
   -6.9540    2.5840   -0.0500 C   0  0  0  0  0  0  0  0  0  0  0  0
   -6.0840    1.4980    0.2280 C   0  0  0  0  0  0  0  0  0  0  0  0
   -0.3210    4.3890    0.2130 C   0  0  0  0  0  0  0  0  0  0  0  0
    1.0310    5.0850    0.0850 C   0  0  0  0  0  0  0  0  0  0  0  0
   -1.3400    6.6230   -0.3070 C   0  0  0  0  0  0  0  0  0  0  0  0
   -8.3190    2.3840   -0.1860 O   0  0  0  0  0  0  0  0  0  0  0  0
   -6.5810    0.2060    0.3420 O   0  0  0  0  0  0  0  0  0  0  0  0
    1.1430    6.4780    0.0990 C   0  0  0  0  0  0  0  0  0  0  0  0
   -0.1000    7.3220    0.2590 C   0  0  0  0  0  0  0  0  0  0  0  0
    2.1820    4.3080   -0.0510 C   0  0  0  0  0  0  0  0  0  0  0  0
   -8.8640    1.1130    0.2440 C   0  0  0  0  0  0  0  0  0  0  0  0
   -7.9310   -0.0430   -0.1200 C   0  0  0  0  0  0  0  0  0  0  0  0
    2.3950    7.0780   -0.0170 C   0  0  0  0  0  0  0  0  0  0  0  0
    3.4300    4.9110   -0.1710 C   0  0  0  0  0  0  0  0  0  0  0  0
    3.5370    6.2970   -0.1540 C   0  0  0  0  0  0  0  0  0  0  0  0
  1  2  2  0  0  0  0
  1  3  1  0  0  0  0
  1  4  1  0  0  0  0
  2  5  1  0  0  0  0
  3  6  1  0  0  0  0
  4 11  1  0  0  0  0
  4 13  1  0  0  0  0
  5  6  2  0  0  0  0
  5  7  1  0  0  0  0
  6  8  1  0  0  0  0
  7 10  2  0  0  0  0
  8  9  2  0  0  0  0
  9 10  1  0  0  0  0
  9 14  1  0  0  0  0
 10 15  1  0  0  0  0
 11 12  1  0  0  0  0
 12 16  2  0  0  0  0
 12 18  1  0  0  0  0
 13 17  1  0  0  0  0
 14 19  1  0  0  0  0
 15 20  1  0  0  0  0
 16 17  1  0  0  0  0
 16 21  1  0  0  0  0
 18 22  2  0  0  0  0
 19 20  1  0  0  0  0
 21 23  2  0  0  0  0
 22 23  1  0  0  0  0
M  END
>  <NScode>
NS-014319651-0000

>  <a_acc>
3

>  <a_don>
0

>  <chiral>
0

>  <opr_nrot>
3

>  <Weight>
324.40399

>  <druglike>
1

>  <lip_druglike>
1

>  <lip_violation>
0

>  <logS>
-4.8005099

$$$$
