NS-025026567-0000
  MOE2022           3D

 23 25  0  0  1  0  0  0  0  0999 V2000
   -4.7440    0.3230   -1.1120 C   0  0  0  0  0  0  0  0  0  0  0  0
   -4.0050    0.9420   -0.0710 O   0  0  0  0  0  0  0  0  0  0  0  0
   -2.5950    0.8360   -0.2590 C   0  0  0  0  0  0  0  0  0  0  0  0
   -1.8030    1.4870    0.9030 C   0  0  3  0  0  0  0  0  0  0  0  0
   -0.4790    1.9910    0.5180 N   0  0  0  0  0  0  0  0  0  0  0  0
    0.4910    1.2390   -0.0720 C   0  0  0  0  0  0  0  0  0  0  0  0
    0.1830    0.1800   -0.5950 O   0  0  0  0  0  0  0  0  0  0  0  0
    1.8320    1.7550   -0.0400 C   0  0  0  0  0  0  0  0  0  0  0  0
    2.3340    2.9900    0.1940 C   0  0  0  0  0  0  0  0  0  0  0  0
    3.6700    2.9730    0.1270 N   0  0  0  0  0  0  0  0  0  0  0  0
    4.0240    1.7370   -0.1480 N   0  0  0  0  0  0  0  0  0  0  0  0
    2.9130    0.9860   -0.2560 N   0  0  0  0  0  0  0  0  0  0  0  0
    2.9720   -0.4150   -0.5180 C   0  0  0  0  0  0  0  0  0  0  0  0
    2.8850   -1.3140    0.5480 C   0  0  0  0  0  0  0  0  0  0  0  0
    2.6940   -0.7710    2.1850 Cl  0  0  0  0  0  0  0  0  0  0  0  0
    2.9450   -2.6840    0.2880 C   0  0  0  0  0  0  0  0  0  0  0  0
    3.0840   -3.1400   -1.0230 C   0  0  0  0  0  0  0  0  0  0  0  0
    3.1610   -2.2360   -2.0820 C   0  0  0  0  0  0  0  0  0  0  0  0
    3.1020   -0.8630   -1.8360 C   0  0  0  0  0  0  0  0  0  0  0  0
    3.1760    0.2400   -3.1720 Cl  0  0  0  0  0  0  0  0  0  0  0  0
   -1.6840    0.6630    2.2100 C   0  0  0  0  0  0  0  0  0  0  0  0
   -1.2450   -0.7800    2.2020 C   0  0  0  0  0  0  0  0  0  0  0  0
   -2.6540   -0.4310    2.5790 C   0  0  0  0  0  0  0  0  0  0  0  0
  1  2  1  0  0  0  0
  2  3  1  0  0  0  0
  3  4  1  0  0  0  0
  4  5  1  0  0  0  0
  4 21  1  0  0  0  0
  5  6  1  0  0  0  0
  6  7  2  0  0  0  0
  6  8  1  0  0  0  0
  8  9  2  0  0  0  0
  8 12  1  0  0  0  0
  9 10  1  0  0  0  0
 10 11  2  0  0  0  0
 11 12  1  0  0  0  0
 12 13  1  0  0  0  0
 13 14  1  0  0  0  0
 13 19  2  0  0  0  0
 14 15  1  0  0  0  0
 14 16  2  0  0  0  0
 16 17  1  0  0  0  0
 17 18  2  0  0  0  0
 18 19  1  0  0  0  0
 19 20  1  0  0  0  0
 21 22  1  0  0  0  0
 21 23  1  0  0  0  0
 22 23  1  0  0  0  0
M  END
>  <NScode>
NS-025026567-0000

>  <a_acc>
4

>  <a_don>
1

>  <chiral>
1

>  <opr_nrot>
6

>  <Weight>
355.22501

>  <druglike>
1

>  <lip_druglike>
1

>  <lip_violation>
0

>  <logS>
-3.5980301

$$$$
