NS-016067763-0000
  MOE2022           3D

 24 26  0  0  0  0  0  0  0  0999 V2000
   -3.9670    1.0660    0.9900 C   0  0  0  0  0  0  0  0  0  0  0  0
   -4.2470    2.1240    0.1940 C   0  0  0  0  0  0  0  0  0  0  0  0
   -3.4690    2.5070   -0.8930 N   0  0  0  0  0  0  0  0  0  0  0  0
   -2.0650    0.6660   -0.4020 N   0  0  0  0  0  0  0  0  0  0  0  0
   -2.8100    0.2780    0.7090 C   0  0  0  0  0  0  0  0  0  0  0  0
    5.4530   -2.4580    0.4860 S   0  0  0  0  0  0  0  0  0  0  0  0
   -5.8360    1.9760    1.7890 N   0  0  0  0  0  0  0  0  0  0  0  0
   -5.3830    2.6660    0.6960 N   0  0  0  0  0  0  0  0  0  0  0  0
    4.1550   -1.6170   -0.0940 N   0  0  0  0  0  0  0  0  0  0  0  0
   -2.4230    1.7970   -1.1490 C   0  0  0  0  0  0  0  0  0  0  0  0
   -4.9690    1.0140    1.9570 C   0  0  0  0  0  0  0  0  0  0  0  0
    0.4910    0.6000   -0.5390 C   0  0  0  0  0  0  0  0  0  0  0  0
    1.6430   -0.1120   -0.5600 N   0  0  0  0  0  0  0  0  0  0  0  0
   -0.8500   -0.0870   -0.7930 C   0  0  0  0  0  0  0  0  0  0  0  0
    2.8460   -2.2950   -0.1030 C   0  0  0  0  0  0  0  0  0  0  0  0
    3.9980   -0.2290    0.3840 C   0  0  0  0  0  0  0  0  0  0  0  0
    6.5790   -1.5960    0.5450 O   0  0  0  0  0  0  0  0  0  0  0  0
    5.0720   -3.1070    1.6890 O   0  0  0  0  0  0  0  0  0  0  0  0
   -2.4390   -0.7110    1.3480 O   0  0  0  0  0  0  0  0  0  0  0  0
    1.7760   -1.5450   -0.9280 C   0  0  0  0  0  0  0  0  0  0  0  0
    2.9530    0.5790   -0.4140 C   0  0  0  0  0  0  0  0  0  0  0  0
    0.5340    1.8170   -0.3880 O   0  0  0  0  0  0  0  0  0  0  0  0
    5.7760   -3.6940   -0.7390 C   0  0  0  0  0  0  0  0  0  0  0  0
   -6.0630    3.8220    0.1570 C   0  0  0  0  0  0  0  0  0  0  0  0
  1  2  2  0  0  0  0
  1  5  1  0  0  0  0
  1 11  1  0  0  0  0
  2  3  1  0  0  0  0
  2  8  1  0  0  0  0
  3 10  2  0  0  0  0
  4  5  1  0  0  0  0
  4 10  1  0  0  0  0
  4 14  1  0  0  0  0
  5 19  2  0  0  0  0
  6  9  1  0  0  0  0
  6 17  2  0  0  0  0
  6 18  2  0  0  0  0
  6 23  1  0  0  0  0
  7  8  1  0  0  0  0
  7 11  2  0  0  0  0
  8 24  1  0  0  0  0
  9 15  1  0  0  0  0
  9 16  1  0  0  0  0
 12 13  1  0  0  0  0
 12 14  1  0  0  0  0
 12 22  2  0  0  0  0
 13 20  1  0  0  0  0
 13 21  1  0  0  0  0
 15 20  1  0  0  0  0
 16 21  1  0  0  0  0
M  END
>  <NScode>
NS-016067763-0000

>  <a_acc>
6

>  <a_don>
0

>  <chiral>
0

>  <opr_nrot>
4

>  <Weight>
354.39099

>  <druglike>
1

>  <lip_druglike>
1

>  <lip_violation>
0

>  <logS>
-0.72250998

$$$$
