/tmp/tmpq4lsnoik
  MOE2022           3D

 13 14  0  0  1  0  0  0  0  0999 V2000
   -8.7320    0.7060   -0.6410 O   0  0  0  0  0  0  0  0  0  0  0  0
  -11.3680    1.8960   -0.1040 C   0  0  0  0  0  0  0  0  0  0  0  0
  -13.2190    4.8990   -0.1040 O   0  0  0  0  0  0  0  0  0  0  0  0
  -11.5400    5.3590    1.9160 C   0  0  0  0  0  0  0  0  0  0  0  0
   -8.7760    4.1550    1.5480 C   0  0  0  0  0  0  0  0  0  0  0  0
  -12.1870    2.9890   -0.6760 N   0  0  0  0  0  0  0  0  0  0  0  0
  -12.3060    4.1110    0.1030 C   0  0  0  0  0  0  0  0  0  0  0  0
  -10.0060    2.5810    0.0770 C   0  0  3  0  0  0  0  0  0  0  0  0
  -11.0560    4.6310    0.6980 N   0  0  0  0  0  0  0  0  0  0  0  0
   -8.7810    1.6860    0.0940 C   0  0  0  0  0  0  0  0  0  0  0  0
  -10.1780    3.5080    1.3100 C   0  0  3  0  0  0  0  0  0  0  0  0
   -7.5680    2.0700    0.9070 C   0  0  0  0  0  0  0  0  0  0  0  0
   -7.8840    3.0090    2.0660 C   0  0  0  0  0  0  0  0  0  0  0  0
  1 10  2  0  0  0  0
  2  6  1  0  0  0  0
  2  8  1  0  0  0  0
  3  7  2  0  0  0  0
  4  9  1  0  0  0  0
  5 11  1  0  0  0  0
  5 13  1  0  0  0  0
  6  7  1  0  0  0  0
  7  9  1  0  0  0  0
  8 10  1  0  0  0  0
  8 11  1  0  0  0  0
  9 11  1  0  0  0  0
 10 12  1  0  0  0  0
 12 13  1  0  0  0  0
M  END
>  <Original_Directory>
3pbz_A_rec_5is4_pg4_lig_tt_docked_16_pocket10

>  <Original_Filename>
3pbz_A_rec_5is4_pg4_lig_tt_docked_16_pocket10_gen_sample_17.sdf

>  <Molecule_ID>
sample_17

>  <logS>
-0.16931

$$$$