/tmp/tmpkvzufcwy
  MOE2022           3D

 16 18  0  0  1  0  0  0  0  0999 V2000
   16.4790   10.3080    8.6640 C   0  0  3  0  0  0  0  0  0  0  0  0
   17.4810   10.6060    9.7580 C   0  0  0  0  0  0  0  0  0  0  0  0
   16.5970   11.1480   10.8850 C   0  0  3  0  0  0  0  0  0  0  0  0
   16.2190   10.6490   13.3270 C   0  0  0  0  0  0  0  0  0  0  0  0
   14.6470   10.3020    5.5690 N   0  0  0  0  0  0  0  0  0  0  0  0
   16.6650   11.0860   14.5760 C   0  0  0  0  0  0  0  0  0  0  0  0
   15.2290   10.8850    6.7350 C   0  0  3  0  0  0  0  0  0  0  0  0
   14.3390   10.6400    7.8860 N   0  0  0  0  0  0  0  0  0  0  0  0
   15.2240   10.5310   10.5340 C   0  0  0  0  0  0  0  0  0  0  0  0
   18.9190   11.0600   13.7920 C   0  0  0  0  0  0  0  0  0  0  0  0
   16.5250   10.1890    7.1580 C   0  0  0  0  0  0  0  0  0  0  0  0
   17.9270   11.6870   14.5590 C   0  0  0  0  0  0  0  0  0  0  0  0
   17.1120   10.7740   12.2460 C   0  0  0  0  0  0  0  0  0  0  0  0
   18.0790   13.1210   14.9470 C   0  0  0  0  0  0  0  0  0  0  0  0
   15.1800   10.9620    9.0590 C   0  0  3  0  0  0  0  0  0  0  0  0
   18.4870   10.8140   12.4870 C   0  0  0  0  0  0  0  0  0  0  0  0
  1  2  1  0  0  0  0
  1 11  1  0  0  0  0
  1 15  1  0  0  0  0
  2  3  1  0  0  0  0
  3  9  1  0  0  0  0
  3 13  1  0  0  0  0
  4  6  1  0  0  0  0
  4 13  1  0  0  0  0
  5  7  1  0  0  0  0
  6 12  1  0  0  0  0
  7  8  1  0  0  0  0
  7 11  1  0  0  0  0
  8 15  1  0  0  0  0
  9 15  1  0  0  0  0
 10 12  1  0  0  0  0
 10 16  1  0  0  0  0
 12 14  1  0  0  0  0
 13 16  1  0  0  0  0
M  END
>  <Original_Directory>
5ali_A_rec_4y2s_49p_lig_tt_min_0_pocket10

>  <Original_Filename>
5ali_A_rec_4y2s_49p_lig_tt_min_0_pocket10_gen_sample_15.sdf

>  <Molecule_ID>
sample_15

>  <logS>
-3.61516

$$$$