/tmp/tmpreqrfchj
  MOE2022           3D

 23 25  0  0  1  0  0  0  0  0999 V2000
  -11.1720   -0.0280    6.4750 O   0  0  0  0  0  0  0  0  0  0  0  0
  -10.5490   -1.1370   14.5990 C   0  0  0  0  0  0  0  0  0  0  0  0
   -9.8260   -0.1220    4.6090 O   0  0  0  0  0  0  0  0  0  0  0  0
  -10.5250    0.6960    9.9520 C   0  0  0  0  0  0  0  0  0  0  0  0
   -8.6460   -3.8250   13.9490 O   0  0  0  0  0  0  0  0  0  0  0  0
  -10.5890    0.6310   12.8600 C   0  0  0  0  0  0  0  0  0  0  0  0
   -8.7300    0.1500    6.6630 C   0  0  0  0  0  0  0  0  0  0  0  0
  -13.2240   -0.5970    9.2540 C   0  0  0  0  0  0  0  0  0  0  0  0
   -9.4180    0.8500   10.7870 O   0  0  0  0  0  0  0  0  0  0  0  0
   -9.2650   -1.6440   14.3680 C   0  0  3  0  0  0  0  0  0  0  0  0
  -11.2460   -0.2490    7.8270 C   0  0  0  0  0  0  0  0  0  0  0  0
  -11.1440   -0.1500   13.8410 C   0  0  0  0  0  0  0  0  0  0  0  0
   -9.4460    0.4550   12.1150 C   0  0  0  0  0  0  0  0  0  0  0  0
   -8.3060   -0.1150   12.6580 C   0  0  0  0  0  0  0  0  0  0  0  0
  -10.2530    0.2250    8.6660 C   0  0  0  0  0  0  0  0  0  0  0  0
   -8.2600   -0.8760   13.8090 C   0  0  0  0  0  0  0  0  0  0  0  0
   -8.8660    0.4130    8.1400 C   0  0  0  0  0  0  0  0  0  0  0  0
   -9.1920   -3.3440   16.0350 N   0  0  0  0  0  0  0  0  0  0  0  0
   -9.9780    0.4450    5.8750 C   0  0  3  0  0  0  0  0  0  0  0  0
  -11.7960    1.0460   10.3670 C   0  0  0  0  0  0  0  0  0  0  0  0
  -12.3360   -0.9670    8.2770 C   0  0  0  0  0  0  0  0  0  0  0  0
  -13.0000    0.4340   10.1260 C   0  0  0  0  0  0  0  0  0  0  0  0
   -9.0030   -3.0100   14.7810 C   0  0  0  0  0  0  0  0  0  0  0  0
  1 11  1  0  0  0  0
  1 19  1  0  0  0  0
  2 10  1  0  0  0  0
  2 12  2  0  0  0  0
  3 19  1  0  0  0  0
  4  9  1  0  0  0  0
  4 15  2  0  0  0  0
  4 20  1  0  0  0  0
  5 23  2  0  0  0  0
  6 12  1  0  0  0  0
  6 13  2  0  0  0  0
  7 17  1  0  0  0  0
  7 19  1  0  0  0  0
  8 21  1  0  0  0  0
  8 22  2  0  0  0  0
  9 13  1  0  0  0  0
 10 16  1  0  0  0  0
 10 23  1  0  0  0  0
 11 15  1  0  0  0  0
 11 21  2  0  0  0  0
 13 14  1  0  0  0  0
 14 16  2  0  0  0  0
 15 17  1  0  0  0  0
 18 23  1  0  0  0  0
 20 22  1  0  0  0  0
M  END
>  <Original_Directory>
4e99_A_rec_1ha2_swf_lig_tt_min_0_pocket10

>  <Original_Filename>
4e99_A_rec_1ha2_swf_lig_tt_min_0_pocket10_gen_sample_3.sdf

>  <Molecule_ID>
sample_3

>  <logS>
-2.9072499

$$$$