/tmp/tmpkld4_v_t
  MOE2022           3D

 35 40  0  0  1  0  0  0  0  0999 V2000
   47.6920   -2.4230  131.5400 C   0  0  0  0  0  0  0  0  0  0  0  0
   43.5120    2.1840  134.9790 C   0  0  0  0  0  0  0  0  0  0  0  0
   44.0290    2.4190  136.2500 C   0  0  0  0  0  0  0  0  0  0  0  0
   41.9280    0.7190  136.0120 C   0  0  0  0  0  0  0  0  0  0  0  0
   42.2900    1.1290  139.6900 C   0  0  0  0  0  0  0  0  0  0  0  0
   48.0810    1.1580  132.2420 N   0  0  0  0  0  0  0  0  0  0  0  0
   41.9280    0.6370  140.9410 C   0  0  0  0  0  0  0  0  0  0  0  0
   40.9340   -0.2840  141.0510 O   0  0  0  0  0  0  0  0  0  0  0  0
   42.0720    0.2870  138.4510 C   0  0  0  0  0  0  0  0  0  0  0  0
   47.3200   -1.0800  131.6520 C   0  0  0  0  0  0  0  0  0  0  0  0
   43.1590    2.1640  137.3060 C   0  0  0  0  0  0  0  0  0  0  0  0
   42.4810    1.1950  142.0930 C   0  0  0  0  0  0  0  0  0  0  0  0
   50.1160   -4.7440  132.8650 O   0  0  0  0  0  0  0  0  0  0  0  0
   45.2150    2.7450  133.2850 N   0  0  0  0  0  0  0  0  0  0  0  0
   43.0020    3.0440  138.3850 C   0  0  0  0  0  0  0  0  0  0  0  0
   45.8940    3.7250  132.6580 C   0  0  0  0  0  0  0  0  0  0  0  0
   49.0060   -0.7610  133.3420 C   0  0  0  0  0  0  0  0  0  0  0  0
   44.3360    5.2490  133.3940 C   0  0  0  0  0  0  0  0  0  0  0  0
   49.4370   -4.2010  131.9610 C   0  0  0  0  0  0  0  0  0  0  0  0
   48.1290   -0.2230  132.4140 C   0  0  0  0  0  0  0  0  0  0  0  0
   43.2200    2.3640  142.0140 C   0  0  0  0  0  0  0  0  0  0  0  0
   42.4970    1.2130  134.8370 C   0  0  0  0  0  0  0  0  0  0  0  0
   44.0230    3.0220  133.9020 C   0  0  3  0  0  0  0  0  0  0  0  0
   49.2040   -2.1390  133.3800 C   0  0  0  0  0  0  0  0  0  0  0  0
   45.5430    5.0120  132.8540 N   0  0  0  0  0  0  0  0  0  0  0  0
   43.5170    4.2590  133.7950 N   0  0  0  0  0  0  0  0  0  0  0  0
   46.8550    3.1940  131.9100 O   0  0  0  0  0  0  0  0  0  0  0  0
   42.8760    2.4200  139.6330 C   0  0  0  0  0  0  0  0  0  0  0  0
   46.9680    1.9310  132.3950 C   0  0  0  0  0  0  0  0  0  0  0  0
   42.3550    1.0760  137.2460 N   0  0  0  0  0  0  0  0  0  0  0  0
   49.4470   -4.5830  130.7530 O   0  0  0  0  0  0  0  0  0  0  0  0
   43.3210    3.0440  140.8050 C   0  0  0  0  0  0  0  0  0  0  0  0
   45.8460    1.5570  133.0220 N   0  0  0  0  0  0  0  0  0  0  0  0
   42.2150    0.6490  143.3090 O   0  0  0  0  0  0  0  0  0  0  0  0
   48.7800   -2.8870  132.2790 C   0  0  0  0  0  0  0  0  0  0  0  0
  1 10  1  0  0  0  0
  1 35  2  0  0  0  0
  2  3  1  0  0  0  0
  2 22  2  0  0  0  0
  2 23  1  0  0  0  0
  3 11  2  0  0  0  0
  4 22  1  0  0  0  0
  4 30  1  0  0  0  0
  5  7  1  0  0  0  0
  5  9  1  0  0  0  0
  5 28  2  0  0  0  0
  6 20  1  0  0  0  0
  6 29  1  0  0  0  0
  7  8  1  0  0  0  0
  7 12  2  0  0  0  0
  9 30  1  0  0  0  0
 10 20  2  0  0  0  0
 11 15  1  0  0  0  0
 11 30  1  0  0  0  0
 12 21  1  0  0  0  0
 12 34  1  0  0  0  0
 13 19  1  0  0  0  0
 14 16  1  0  0  0  0
 14 23  1  0  0  0  0
 14 33  1  0  0  0  0
 15 28  1  0  0  0  0
 16 25  2  0  0  0  0
 16 27  1  0  0  0  0
 17 20  1  0  0  0  0
 17 24  2  0  0  0  0
 18 25  1  0  0  0  0
 18 26  2  0  0  0  0
 19 31  2  0  0  0  0
 19 35  1  0  0  0  0
 21 32  2  0  0  0  0
 23 26  1  0  0  0  0
 24 35  1  0  0  0  0
 27 29  1  0  0  0  0
 28 32  1  0  0  0  0
 29 33  2  0  0  0  0
M  END
>  <Original_Directory>
5u41_B_rec_5u45_7sy_lig_tt_docked_0_pocket10

>  <Original_Filename>
5u41_B_rec_5u45_7sy_lig_tt_docked_0_pocket10_gen_sample_8.sdf

>  <Molecule_ID>
sample_8

>  <logS>
-5.2955499

$$$$