/tmp/tmphghag2ak
  MOE2022           3D

 35 39  0  0  1  0  0  0  0  0999 V2000
   47.2360    3.6600  132.6230 C   0  0  0  0  0  0  0  0  0  0  0  0
   42.4560    2.2460  134.0500 C   0  0  0  0  0  0  0  0  0  0  0  0
   42.4790    2.8620  138.6710 O   0  0  0  0  0  0  0  0  0  0  0  0
   48.0990    2.7800  132.1350 C   0  0  0  0  0  0  0  0  0  0  0  0
   45.4330    1.7440  134.3630 C   0  0  0  0  0  0  0  0  0  0  0  0
   50.2730   -3.0180  132.7340 C   0  0  0  0  0  0  0  0  0  0  0  0
   45.1180    4.6310  132.4840 O   0  0  0  0  0  0  0  0  0  0  0  0
   49.0340   -0.9730  132.4970 C   0  0  0  0  0  0  0  0  0  0  0  0
   40.8490    0.8790  139.9500 C   0  0  0  0  0  0  0  0  0  0  0  0
   44.9630    2.2510  132.9810 C   0  0  1  0  0  0  0  0  0  0  0  0
   47.8720    1.3200  131.8810 C   0  0  3  0  0  0  0  0  0  0  0  0
   47.8240   -1.6300  132.9360 C   0  0  0  0  0  0  0  0  0  0  0  0
   49.3320   -4.8450  133.9770 O   0  0  0  0  0  0  0  0  0  0  0  0
   50.1550    0.9260  131.6170 O   0  0  0  0  0  0  0  0  0  0  0  0
   45.7430    3.6110  132.7020 C   0  0  0  0  0  0  0  0  0  0  0  0
   41.9670    1.7180  137.9420 C   0  0  3  0  0  0  0  0  0  0  0  0
   42.4940    2.7380  140.1500 C   0  0  3  0  0  0  0  0  0  0  0  0
   49.1550   -3.6510  133.3430 C   0  0  0  0  0  0  0  0  0  0  0  0
   49.0790    0.4390  131.9510 C   0  0  0  0  0  0  0  0  0  0  0  0
   41.5220    0.5440  138.6990 C   0  0  0  0  0  0  0  0  0  0  0  0
   40.5590    0.6610  134.6000 C   0  0  0  0  0  0  0  0  0  0  0  0
   45.2440    1.1840  131.8860 C   0  0  0  0  0  0  0  0  0  0  0  0
   41.5650    2.1030  131.2600 C   0  0  0  0  0  0  0  0  0  0  0  0
   43.4730    3.3950  140.9140 N   0  0  0  0  0  0  0  0  0  0  0  0
   41.2160    1.4910  133.6390 C   0  0  0  0  0  0  0  0  0  0  0  0
   40.7910    1.5520  132.2610 C   0  0  0  0  0  0  0  0  0  0  0  0
   46.5990    0.7830  131.4510 C   0  0  0  0  0  0  0  0  0  0  0  0
   50.2560   -1.6560  132.5690 N   0  0  0  0  0  0  0  0  0  0  0  0
   43.4370    2.5260  132.9560 C   0  0  0  0  0  0  0  0  0  0  0  0
   40.9620    0.6480  135.9420 C   0  0  0  0  0  0  0  0  0  0  0  0
   41.8550    1.7090  136.4720 C   0  0  0  0  0  0  0  0  0  0  0  0
   47.8950   -2.9890  133.3460 C   0  0  0  0  0  0  0  0  0  0  0  0
   41.4280    1.9140  140.7020 C   0  0  0  0  0  0  0  0  0  0  0  0
   42.5850    2.5350  135.4960 C   0  0  0  0  0  0  0  0  0  0  0  0
   42.8110    2.8300  131.6060 C   0  0  0  0  0  0  0  0  0  0  0  0
  1  4  1  0  0  0  0
  1 15  1  0  0  0  0
  2 25  1  0  0  0  0
  2 29  2  0  0  0  0
  2 34  1  0  0  0  0
  3 16  1  0  0  0  0
  3 17  1  0  0  0  0
  4 11  1  0  0  0  0
  5 10  1  0  0  0  0
  6 18  1  0  0  0  0
  6 28  2  0  0  0  0
  7 15  2  0  0  0  0
  8 12  2  0  0  0  0
  8 19  1  0  0  0  0
  8 28  1  0  0  0  0
  9 20  1  0  0  0  0
  9 33  2  0  0  0  0
 10 15  1  0  0  0  0
 10 22  1  0  0  0  0
 10 29  1  0  0  0  0
 11 19  1  0  0  0  0
 11 27  1  0  0  0  0
 12 32  1  0  0  0  0
 13 18  1  0  0  0  0
 14 19  2  0  0  0  0
 16 20  1  0  0  0  0
 16 31  1  0  0  0  0
 17 24  1  0  0  0  0
 17 33  1  0  0  0  0
 18 32  2  0  0  0  0
 21 25  1  0  0  0  0
 21 30  2  0  0  0  0
 22 27  2  0  0  0  0
 23 26  1  0  0  0  0
 23 35  2  0  0  0  0
 25 26  2  0  0  0  0
 29 35  1  0  0  0  0
 30 31  1  0  0  0  0
 31 34  2  0  0  0  0
M  END
>  <Original_Directory>
5u41_B_rec_5u45_7sy_lig_tt_docked_0_pocket10

>  <Original_Filename>
5u41_B_rec_5u45_7sy_lig_tt_docked_0_pocket10_gen_sample_13.sdf

>  <Molecule_ID>
sample_13

>  <logS>
-5.05725

$$$$