/tmp/tmprmdg9vbz
  MOE2022           3D

 21 23  0  0  1  0  0  0  0  0999 V2000
  -10.7850   18.9690   31.0090 O   0  0  0  0  0  0  0  0  0  0  0  0
   -7.8540   20.4520   30.2820 C   0  0  0  0  0  0  0  0  0  0  0  0
   -6.7050   19.5300   28.2160 C   0  0  1  0  0  0  0  0  0  0  0  0
   -3.6910   20.7740   25.4410 C   0  0  0  0  0  0  0  0  0  0  0  0
   -6.4480   18.3090   29.0740 C   0  0  0  0  0  0  0  0  0  0  0  0
   -7.8980   19.2080   27.3250 C   0  0  0  0  0  0  0  0  0  0  0  0
   -5.9930   20.7700   26.1400 C   0  0  0  0  0  0  0  0  0  0  0  0
   -2.9910   18.5120   25.4040 C   0  0  0  0  0  0  0  0  0  0  0  0
   -5.2610   19.6800   23.9860 C   0  0  0  0  0  0  0  0  0  0  0  0
   -8.2410   19.1980   30.5940 C   0  0  0  0  0  0  0  0  0  0  0  0
   -4.2290   18.9830   23.3730 C   0  0  0  0  0  0  0  0  0  0  0  0
   -9.5120   18.9300   31.7860 P   0  0  0  0  0  0  0  0  0  0  0  0
   -7.6640   17.9640   29.9320 C   0  0  0  0  0  0  0  0  0  0  0  0
   -3.5210   19.5740   26.1380 C   0  0  3  0  0  0  0  0  0  0  0  0
   -3.1200   18.4580   24.0220 C   0  0  0  0  0  0  0  0  0  0  0  0
   -7.0260   20.7530   29.0570 C   0  0  0  0  0  0  0  0  0  0  0  0
   -9.2620   17.5820   32.3770 O   0  0  0  0  0  0  0  0  0  0  0  0
   -5.0030   20.5180   25.0670 C   0  0  3  0  0  0  0  0  0  0  0  0
   -4.2640   19.3880   27.3590 C   0  0  0  0  0  0  0  0  0  0  0  0
   -9.4470   20.0220   32.7640 O   0  0  0  0  0  0  0  0  0  0  0  0
   -5.5590   20.0010   27.3630 C   0  0  0  0  0  0  0  0  0  0  0  0
  1 12  2  0  0  0  0
  2 10  2  0  0  0  0
  2 16  1  0  0  0  0
  3  5  1  0  0  0  0
  3  6  1  0  0  0  0
  3 16  1  0  0  0  0
  3 21  1  0  0  0  0
  4 14  1  0  0  0  0
  4 18  1  0  0  0  0
  5 13  1  0  0  0  0
  7 18  1  0  0  0  0
  7 21  1  0  0  0  0
  8 14  1  0  0  0  0
  8 15  1  0  0  0  0
  9 11  1  0  0  0  0
  9 18  1  0  0  0  0
 10 12  1  0  0  0  0
 10 13  1  0  0  0  0
 11 15  2  0  0  0  0
 12 17  1  0  0  0  0
 12 20  1  0  0  0  0
 14 19  1  0  0  0  0
 19 21  1  0  0  0  0
M  END
>  <Original_Directory>
4kbn_A_rec_5hsu_63y_lig_tt_docked_19_pocket10

>  <Original_Filename>
4kbn_A_rec_5hsu_63y_lig_tt_docked_19_pocket10_gen_sample_9.sdf

>  <Molecule_ID>
sample_9

>  <logS>
-4.4210801

$$$$