/tmp/tmpqujih289
  MOE2022           3D

 21 23  0  0  1  0  0  0  0  0999 V2000
   -8.8580   18.5060   30.7320 C   0  0  0  0  0  0  0  0  0  0  0  0
   -6.1320   16.4320   29.8610 O   0  0  0  0  0  0  0  0  0  0  0  0
   -5.8480   19.5080   26.3960 C   0  0  0  0  0  0  0  0  0  0  0  0
   -6.8660   19.8710   27.2860 C   0  0  0  0  0  0  0  0  0  0  0  0
   -8.7540   19.4810   29.5370 C   0  0  0  0  0  0  0  0  0  0  0  0
   -6.6040   19.0670   30.6240 C   0  0  0  0  0  0  0  0  0  0  0  0
   -9.8360   17.5510   30.5200 O   0  0  0  0  0  0  0  0  0  0  0  0
   -4.2670   20.1710   28.0880 C   0  0  0  0  0  0  0  0  0  0  0  0
   -9.1420   19.2660   31.8830 O   0  0  0  0  0  0  0  0  0  0  0  0
   -3.5390   20.0570   25.7940 C   0  0  0  0  0  0  0  0  0  0  0  0
   -7.1690   16.6390   30.5400 C   0  0  0  0  0  0  0  0  0  0  0  0
   -4.2290   19.0130   23.6500 C   0  0  0  0  0  0  0  0  0  0  0  0
   -7.5270   17.9610   30.7600 N   0  0  0  0  0  0  0  0  0  0  0  0
   -4.5340   19.8730   26.7460 C   0  0  0  0  0  0  0  0  0  0  0  0
   -6.5110   20.2550   28.5710 C   0  0  3  0  0  0  0  0  0  0  0  0
   -3.4350   19.8240   24.4480 C   0  0  0  0  0  0  0  0  0  0  0  0
   -6.1400   18.8030   25.2360 C   0  0  0  0  0  0  0  0  0  0  0  0
   -7.8970   15.7480   31.0040 O   0  0  0  0  0  0  0  0  0  0  0  0
   -7.3690   20.0570   29.7640 C   0  0  3  0  0  0  0  0  0  0  0  0
   -5.4420   18.5010   24.1140 C   0  0  0  0  0  0  0  0  0  0  0  0
   -5.2500   20.6720   28.8500 N   0  0  0  0  0  0  0  0  0  0  0  0
  1  5  1  0  0  0  0
  1  7  1  0  0  0  0
  1  9  1  0  0  0  0
  1 13  1  0  0  0  0
  2 11  2  0  0  0  0
  3  4  2  0  0  0  0
  3 14  1  0  0  0  0
  3 17  1  0  0  0  0
  4 15  1  0  0  0  0
  5 19  1  0  0  0  0
  6 13  1  0  0  0  0
  6 19  1  0  0  0  0
  8 14  1  0  0  0  0
  8 21  2  0  0  0  0
 10 14  2  0  0  0  0
 10 16  1  0  0  0  0
 11 13  1  0  0  0  0
 11 18  1  0  0  0  0
 12 16  2  0  0  0  0
 12 20  1  0  0  0  0
 15 19  1  0  0  0  0
 15 21  1  0  0  0  0
 17 20  2  0  0  0  0
M  END
>  <Original_Directory>
4kbn_A_rec_5hsu_63y_lig_tt_docked_19_pocket10

>  <Original_Filename>
4kbn_A_rec_5hsu_63y_lig_tt_docked_19_pocket10_gen_sample_19.sdf

>  <Molecule_ID>
sample_19

>  <logS>
-1.92285

$$$$