/tmp/tmpd1tioawt
  MOE2022           3D

 19 20  0  0  1  0  0  0  0  0999 V2000
    0.2910   13.0690   15.1020 C   0  0  3  0  0  0  0  0  0  0  0  0
    2.3820   11.5490   15.2750 C   0  0  0  0  0  0  0  0  0  0  0  0
    1.3210   17.7640   14.6690 C   0  0  0  0  0  0  0  0  0  0  0  0
   -1.2030   13.0190   16.9250 O   0  0  0  0  0  0  0  0  0  0  0  0
    0.4000   16.6980   14.5160 C   0  0  3  0  0  0  0  0  0  0  0  0
   -0.8000   18.6260   14.8540 C   0  0  0  0  0  0  0  0  0  0  0  0
    0.7000   15.3500   14.2170 C   0  0  0  0  0  0  0  0  0  0  0  0
    2.3160   20.6930   14.3530 C   0  0  0  0  0  0  0  0  0  0  0  0
    1.9870   10.3980   15.9970 C   0  0  0  0  0  0  0  0  0  0  0  0
   -0.8890   17.2200   14.8670 C   0  0  0  0  0  0  0  0  0  0  0  0
    1.6320   12.6990   15.1660 C   0  0  0  0  0  0  0  0  0  0  0  0
   -0.0870   14.2870   14.4750 C   0  0  0  0  0  0  0  0  0  0  0  0
   -1.8520   12.1070   14.9790 O   0  0  0  0  0  0  0  0  0  0  0  0
   -0.8170   12.2780   15.8770 C   0  0  0  0  0  0  0  0  0  0  0  0
   -0.3800   11.0080   16.3270 N   0  0  0  0  0  0  0  0  0  0  0  0
    3.5380   21.0210   15.1860 C   0  0  0  0  0  0  0  0  0  0  0  0
    1.1600   20.2770   15.2280 C   0  0  0  0  0  0  0  0  0  0  0  0
    0.5900   18.9150   14.9840 C   0  0  3  0  0  0  0  0  0  0  0  0
    0.6830   10.2740   16.4310 C   0  0  0  0  0  0  0  0  0  0  0  0
  1 11  1  0  0  0  0
  1 12  1  0  0  0  0
  1 14  1  0  0  0  0
  2  9  2  0  0  0  0
  2 11  1  0  0  0  0
  3  5  1  0  0  0  0
  3 18  1  0  0  0  0
  4 14  1  0  0  0  0
  5  7  1  0  0  0  0
  5 10  1  0  0  0  0
  6 10  1  0  0  0  0
  6 18  1  0  0  0  0
  7 12  1  0  0  0  0
  8 16  1  0  0  0  0
  8 17  1  0  0  0  0
  9 19  1  0  0  0  0
 13 14  1  0  0  0  0
 14 15  1  0  0  0  0
 15 19  2  0  0  0  0
 17 18  1  0  0  0  0
M  END
>  <Original_Directory>
1jr4_A_rec_5p9t_7jd_lig_tt_docked_0_pocket10

>  <Original_Filename>
1jr4_A_rec_5p9t_7jd_lig_tt_docked_0_pocket10_gen_sample_19.sdf

>  <Molecule_ID>
sample_19

>  <logS>
-4.8997598

$$$$