/tmp/tmpdqm1cvp4
  MOE2022           3D

 16 18  0  0  1  0  0  0  0  0999 V2000
   72.7870   26.0820   27.6360 C   0  0  0  0  0  0  0  0  0  0  0  0
   76.8150   27.2890   27.4550 C   0  0  0  0  0  0  0  0  0  0  0  0
   69.2510   26.1210   24.6460 N   0  0  0  0  0  0  0  0  0  0  0  0
   69.0680   24.1520   25.7780 O   0  0  0  0  0  0  0  0  0  0  0  0
   70.2720   26.5530   27.8900 C   0  0  0  0  0  0  0  0  0  0  0  0
   71.0470   25.3240   26.0400 N   0  0  0  0  0  0  0  0  0  0  0  0
   75.4350   26.8790   27.8210 C   0  0  3  0  0  0  0  0  0  0  0  0
   76.2330   25.1140   26.4420 C   0  0  0  0  0  0  0  0  0  0  0  0
   74.4510   27.6700   28.3820 C   0  0  0  0  0  0  0  0  0  0  0  0
   73.8080   25.1800   27.3220 C   0  0  0  0  0  0  0  0  0  0  0  0
   77.3270   26.1590   26.5610 C   0  0  0  0  0  0  0  0  0  0  0  0
   69.5890   25.3990   25.8500 C   0  0  1  0  0  0  0  0  0  0  0  0
   75.1120   25.6310   27.2950 C   0  0  0  0  0  0  0  0  0  0  0  0
   69.0490   26.1740   27.0640 C   0  0  0  0  0  0  0  0  0  0  0  0
   73.1150   27.3440   28.1300 C   0  0  0  0  0  0  0  0  0  0  0  0
   71.3700   25.6320   27.4330 C   0  0  3  0  0  0  0  0  0  0  0  0
  1 10  2  0  0  0  0
  1 15  1  0  0  0  0
  1 16  1  0  0  0  0
  2  7  1  0  0  0  0
  2 11  2  0  0  0  0
  3 12  1  0  0  0  0
  4 12  1  0  0  0  0
  5 14  1  0  0  0  0
  5 16  1  0  0  0  0
  6 12  1  0  0  0  0
  6 16  1  0  0  0  0
  7  9  1  0  0  0  0
  7 13  1  0  0  0  0
  8 11  1  0  0  0  0
  8 13  2  0  0  0  0
  9 15  2  0  0  0  0
 10 13  1  0  0  0  0
 12 14  1  0  0  0  0
M  END
>  <Original_Directory>
3hc8_A_rec_1rkp_ibm_lig_tt_docked_1_pocket10

>  <Original_Filename>
3hc8_A_rec_1rkp_ibm_lig_tt_docked_1_pocket10_gen_sample_5.sdf

>  <Molecule_ID>
sample_5

>  <logS>
-1.92067

$$$$