/tmp/tmp9mc5qzbt
  MOE2022           3D

 25 28  0  0  1  0  0  0  0  0999 V2000
   -8.4060    1.6570   14.3910 C   0  0  0  0  0  0  0  0  0  0  0  0
  -10.7930    1.8410   10.9030 C   0  0  0  0  0  0  0  0  0  0  0  0
  -10.6890    1.1480   13.7050 C   0  0  0  0  0  0  0  0  0  0  0  0
   -6.8990   -1.4490    7.6840 C   0  0  0  0  0  0  0  0  0  0  0  0
   -9.3600    1.1830   13.3290 C   0  0  0  0  0  0  0  0  0  0  0  0
   -7.9460   -0.3350    9.6770 C   0  0  3  0  0  0  0  0  0  0  0  0
  -11.9450    1.5610   11.6440 C   0  0  0  0  0  0  0  0  0  0  0  0
   -9.6680    0.9840   10.9100 C   0  0  0  0  0  0  0  0  0  0  0  0
   -7.3060    1.4840    6.7400 O   0  0  0  0  0  0  0  0  0  0  0  0
   -8.5660   -1.4590    5.7970 C   0  0  0  0  0  0  0  0  0  0  0  0
   -7.3440   -1.8080    6.3880 C   0  0  0  0  0  0  0  0  0  0  0  0
   -6.9010   -0.2430   12.8000 O   0  0  0  0  0  0  0  0  0  0  0  0
  -10.7680   -0.5490    5.4940 O   0  0  0  0  0  0  0  0  0  0  0  0
   -7.0660    0.3440   10.5790 O   0  0  0  0  0  0  0  0  0  0  0  0
   -9.2910    0.3200    9.6860 C   0  0  3  0  0  0  0  0  0  0  0  0
  -10.1630    0.2320    8.4800 C   0  0  0  0  0  0  0  0  0  0  0  0
   -8.9080    0.8100   12.0670 C   0  0  0  0  0  0  0  0  0  0  0  0
   -7.3720   -0.3050    8.2800 C   0  0  3  0  0  0  0  0  0  0  0  0
   -7.5440    0.2670   11.9060 C   0  0  0  0  0  0  0  0  0  0  0  0
   -9.5870   -0.6370    6.2520 N   0  0  0  0  0  0  0  0  0  0  0  0
   -9.4360    0.5140    7.1640 C   0  0  3  0  0  0  0  0  0  0  0  0
   -8.7870   -2.0080    4.6970 O   0  0  0  0  0  0  0  0  0  0  0  0
  -11.8440    1.2090   12.9820 C   0  0  0  0  0  0  0  0  0  0  0  0
   -7.9510    0.6810    7.3980 C   0  0  0  0  0  0  0  0  0  0  0  0
  -10.7190    2.9620   10.2030 O   0  0  0  0  0  0  0  0  0  0  0  0
  1  5  1  0  0  0  0
  2  7  1  0  0  0  0
  2  8  2  0  0  0  0
  2 25  1  0  0  0  0
  3  5  1  0  0  0  0
  3 23  2  0  0  0  0
  4 11  1  0  0  0  0
  4 18  1  0  0  0  0
  5 17  2  0  0  0  0
  6 14  1  0  0  0  0
  6 15  1  0  0  0  0
  6 18  1  0  0  0  0
  7 23  1  0  0  0  0
  8 15  1  0  0  0  0
  8 17  1  0  0  0  0
  9 24  2  0  0  0  0
 10 11  1  0  0  0  0
 10 20  1  0  0  0  0
 10 22  2  0  0  0  0
 12 19  2  0  0  0  0
 13 20  1  0  0  0  0
 14 19  1  0  0  0  0
 15 16  1  0  0  0  0
 16 21  1  0  0  0  0
 17 19  1  0  0  0  0
 18 24  1  0  0  0  0
 20 21  1  0  0  0  0
 21 24  1  0  0  0  0
M  END
>  <Original_Directory>
5id7_A_rec_2xvu_9dn_lig_tt_min_0_pocket10

>  <Original_Filename>
5id7_A_rec_2xvu_9dn_lig_tt_min_0_pocket10_gen_sample_1.sdf

>  <Molecule_ID>
sample_1

>  <logS>
-2.1228399

$$$$