/tmp/tmpab4s8oab
  MOE2022           3D

 28 31  0  0  1  0  0  0  0  0999 V2000
   46.1290   39.6090   18.4000 C   0  0  0  0  0  0  0  0  0  0  0  0
   40.6010   33.9850   13.5680 O   0  0  0  0  0  0  0  0  0  0  0  0
   37.8830   35.6880   14.0180 C   0  0  0  0  0  0  0  0  0  0  0  0
   40.1820   34.9800   14.4900 C   0  0  2  0  0  0  0  0  0  0  0  0
   46.1650   40.9970   18.4450 C   0  0  0  0  0  0  0  0  0  0  0  0
   42.2610   35.6220   16.0090 C   0  0  0  0  0  0  0  0  0  0  0  0
   45.7820   41.0970   16.0640 C   0  0  0  0  0  0  0  0  0  0  0  0
   45.9260   37.4630   17.1970 C   0  0  3  0  0  0  0  0  0  0  0  0
   43.5260   35.1000   15.6490 C   0  0  0  0  0  0  0  0  0  0  0  0
   42.2070   36.8670   16.6360 C   0  0  0  0  0  0  0  0  0  0  0  0
   44.6900   35.7760   16.0560 C   0  0  0  0  0  0  0  0  0  0  0  0
   36.7760   36.1460   14.7560 O   0  0  0  0  0  0  0  0  0  0  0  0
   43.5910   33.9310   14.9850 O   0  0  0  0  0  0  0  0  0  0  0  0
   45.9710   38.9660   17.1760 C   0  0  0  0  0  0  0  0  0  0  0  0
   38.7220   34.7450   14.8600 C   0  0  0  0  0  0  0  0  0  0  0  0
   46.9280   36.6490   16.4010 C   0  0  0  0  0  0  0  0  0  0  0  0
   40.2320   36.3400   13.8190 C   0  0  0  0  0  0  0  0  0  0  0  0
   46.0400   41.7320   17.2750 C   0  0  0  0  0  0  0  0  0  0  0  0
   46.1440   35.4740   15.8110 C   0  0  0  0  0  0  0  0  0  0  0  0
   38.8100   36.8620   13.7180 C   0  0  3  0  0  0  0  0  0  0  0  0
   40.9980   34.8660   15.7690 C   0  0  3  0  0  0  0  0  0  0  0  0
   40.9950   33.5700   16.3010 O   0  0  0  0  0  0  0  0  0  0  0  0
   37.4140   35.0750   12.8480 O   0  0  0  0  0  0  0  0  0  0  0  0
   38.5110   37.3190   12.4080 O   0  0  0  0  0  0  0  0  0  0  0  0
   44.5850   36.9250   16.8210 C   0  0  0  0  0  0  0  0  0  0  0  0
   40.9250   37.6370   16.6130 C   0  0  0  0  0  0  0  0  0  0  0  0
   43.3440   37.4110   17.2200 C   0  0  0  0  0  0  0  0  0  0  0  0
   45.7070   39.7090   16.0360 C   0  0  0  0  0  0  0  0  0  0  0  0
  1  5  1  0  0  0  0
  1 14  2  0  0  0  0
  2  4  1  0  0  0  0
  3 12  1  0  0  0  0
  3 15  1  0  0  0  0
  3 20  1  0  0  0  0
  3 23  1  0  0  0  0
  4 15  1  0  0  0  0
  4 17  1  0  0  0  0
  4 21  1  0  0  0  0
  5 18  2  0  0  0  0
  6  9  2  0  0  0  0
  6 10  1  0  0  0  0
  6 21  1  0  0  0  0
  7 18  1  0  0  0  0
  7 28  2  0  0  0  0
  8 14  1  0  0  0  0
  8 16  1  0  0  0  0
  8 25  1  0  0  0  0
  9 11  1  0  0  0  0
  9 13  1  0  0  0  0
 10 26  1  0  0  0  0
 10 27  2  0  0  0  0
 11 19  1  0  0  0  0
 11 25  2  0  0  0  0
 14 28  1  0  0  0  0
 16 19  1  0  0  0  0
 17 20  1  0  0  0  0
 20 24  1  0  0  0  0
 21 22  1  0  0  0  0
 25 27  1  0  0  0  0
M  END
>  <Original_Directory>
2iiv_A_rec_4pnz_2vh_lig_tt_docked_0_pocket10

>  <Original_Filename>
2iiv_A_rec_4pnz_2vh_lig_tt_docked_0_pocket10_gen_sample_8.sdf

>  <Molecule_ID>
sample_8

>  <logS>
-3.7560799

$$$$