/tmp/tmpyzw14oz8
  MOE2022           3D

 31 35  0  0  1  0  0  0  0  0999 V2000
   15.3680    7.8320  113.8670 C   0  0  0  0  0  0  0  0  0  0  0  0
   18.4510    7.3870  110.4730 O   0  0  0  0  0  0  0  0  0  0  0  0
   17.6290   -2.5180  113.9220 O   0  0  0  0  0  0  0  0  0  0  0  0
   18.4940    6.0480  112.2180 O   0  0  0  0  0  0  0  0  0  0  0  0
   16.1660   -1.2900  115.3600 C   0  0  3  0  0  0  0  0  0  0  0  0
   14.9990    3.0680  114.5490 C   0  0  0  0  0  0  0  0  0  0  0  0
   17.8990    6.5340  111.2240 C   0  0  0  0  0  0  0  0  0  0  0  0
   15.4520   -5.9200  115.5120 C   0  0  0  0  0  0  0  0  0  0  0  0
   15.1780    2.8540  113.1780 C   0  0  0  0  0  0  0  0  0  0  0  0
   15.4630    0.8110  115.8130 C   0  0  0  0  0  0  0  0  0  0  0  0
   16.4660    0.0660  115.0740 C   0  0  0  0  0  0  0  0  0  0  0  0
   16.5810   -2.4590  114.8220 N   0  0  0  0  0  0  0  0  0  0  0  0
   14.8730   -0.0370  116.7730 C   0  0  0  0  0  0  0  0  0  0  0  0
   14.8970    2.0220  115.4880 C   0  0  0  0  0  0  0  0  0  0  0  0
   15.9200   -3.5920  115.2360 C   0  0  0  0  0  0  0  0  0  0  0  0
   15.4180    7.6340  112.4910 C   0  0  0  0  0  0  0  0  0  0  0  0
   16.5710    6.1800  110.9760 N   0  0  0  0  0  0  0  0  0  0  0  0
   15.6330   -6.6980  116.6140 O   0  0  0  0  0  0  0  0  0  0  0  0
   16.4170   -4.9040  115.3110 C   0  0  0  0  0  0  0  0  0  0  0  0
   14.9490    4.3700  115.0260 C   0  0  0  0  0  0  0  0  0  0  0  0
   14.1480   -5.6720  115.0330 C   0  0  0  0  0  0  0  0  0  0  0  0
   15.1690   -1.3510  116.3920 C   0  0  3  0  0  0  0  0  0  0  0  0
   14.2710   -2.3650  116.4330 N   0  0  0  0  0  0  0  0  0  0  0  0
   15.3170    3.9340  112.3260 C   0  0  0  0  0  0  0  0  0  0  0  0
   14.5830   -3.4130  115.6340 C   0  0  0  0  0  0  0  0  0  0  0  0
   17.7370   -5.2280  115.2310 O   0  0  0  0  0  0  0  0  0  0  0  0
   13.6620   -4.3750  115.1780 C   0  0  0  0  0  0  0  0  0  0  0  0
   15.3330    6.7430  114.7110 C   0  0  0  0  0  0  0  0  0  0  0  0
   15.3490    5.2400  112.8110 C   0  0  0  0  0  0  0  0  0  0  0  0
   15.1720    5.4600  114.1880 C   0  0  0  0  0  0  0  0  0  0  0  0
   15.6780    6.3530  112.0170 C   0  0  0  0  0  0  0  0  0  0  0  0
  1 16  1  0  0  0  0
  1 28  2  0  0  0  0
  2  7  2  0  0  0  0
  3 12  1  0  0  0  0
  4  7  1  0  0  0  0
  5 11  1  0  0  0  0
  5 12  1  0  0  0  0
  5 22  1  0  0  0  0
  6  9  1  0  0  0  0
  6 14  1  0  0  0  0
  6 20  2  0  0  0  0
  7 17  1  0  0  0  0
  8 18  1  0  0  0  0
  8 19  1  0  0  0  0
  8 21  2  0  0  0  0
  9 24  2  0  0  0  0
 10 11  1  0  0  0  0
 10 13  1  0  0  0  0
 10 14  2  0  0  0  0
 12 15  1  0  0  0  0
 13 22  1  0  0  0  0
 15 19  2  0  0  0  0
 15 25  1  0  0  0  0
 16 31  2  0  0  0  0
 17 31  1  0  0  0  0
 19 26  1  0  0  0  0
 20 30  1  0  0  0  0
 21 27  1  0  0  0  0
 22 23  1  0  0  0  0
 23 25  1  0  0  0  0
 24 29  1  0  0  0  0
 25 27  2  0  0  0  0
 28 30  1  0  0  0  0
 29 30  2  0  0  0  0
 29 31  1  0  0  0  0
M  END
>  <Original_Directory>
3rjf_A_rec_2isp_ggh_lig_tt_docked_2_pocket10

>  <Original_Filename>
3rjf_A_rec_2isp_ggh_lig_tt_docked_2_pocket10_gen_sample_7.sdf

>  <Molecule_ID>
sample_7

>  <logS>
-4.4600301

$$$$