/tmp/tmp4o7jk5xa
  MOE2022           3D

 23 29  0  0  1  0  0  0  0  0999 V2000
  -20.4210   30.5630   25.0640 O   0  0  0  0  0  0  0  0  0  0  0  0
  -15.6950   30.2030   23.1990 O   0  0  0  0  0  0  0  0  0  0  0  0
  -19.7350   31.1230   26.2350 C   0  0  3  0  0  0  0  0  0  0  0  0
  -17.7400   30.4360   22.1280 O   0  0  0  0  0  0  0  0  0  0  0  0
  -17.1440   31.5490   24.0220 O   0  0  0  0  0  0  0  0  0  0  0  0
  -20.1750   31.3220   27.2510 C   0  0  3  0  0  0  0  0  0  0  0  0
  -21.1740   29.3800   25.4800 C   0  0  3  0  0  0  0  0  0  0  0  0
  -17.6860   30.5960   27.7720 P   0  0  1  0  0  0  0  0  0  0  0  0
  -16.2140   31.2490   25.0600 C   0  0  1  0  0  0  0  0  0  0  0  0
  -19.7250   28.9920   27.2360 O   0  0  0  0  0  0  0  0  0  0  0  0
  -21.3910   31.3920   27.8020 O   0  0  0  0  0  0  0  0  0  0  0  0
  -15.4360   30.1530   24.5940 N   0  0  0  0  0  0  0  0  0  0  0  0
  -17.4120   29.4040   24.1380 N   0  0  0  0  0  0  0  0  0  0  0  0
  -16.5270   29.4330   25.2490 C   0  0  2  0  0  0  0  0  0  0  0  0
  -16.9410   30.5480   26.1540 C   0  0  3  0  0  0  0  0  0  0  0  0
  -17.4100   29.5190   28.7030 O   0  0  0  0  0  0  0  0  0  0  0  0
  -17.1360   30.3800   23.2290 C   0  0  2  0  0  0  0  0  0  0  0  0
  -17.3780   31.8410   28.4750 O   0  0  0  0  0  0  0  0  0  0  0  0
  -20.8880   28.7030   26.3820 C   0  0  3  0  0  0  0  0  0  0  0  0
  -19.5930   28.3240   23.3380 O   0  0  0  0  0  0  0  0  0  0  0  0
  -18.3310   28.3170   23.9650 O   0  0  0  0  0  0  0  0  0  0  0  0
  -19.3860   30.4350   27.1410 C   0  0  2  0  0  0  0  0  0  0  0  0
  -21.8050   29.4740   26.5210 O   0  0  0  0  0  0  0  0  0  0  0  0
  1  3  1  0  0  0  0
  1  7  1  0  0  0  0
  2 12  1  0  0  0  0
  2 17  1  0  0  0  0
  3  6  1  0  0  0  0
  3 22  1  0  0  0  0
  4 17  1  0  0  0  0
  5  9  1  0  0  0  0
  5 17  1  0  0  0  0
  6 11  1  0  0  0  0
  6 22  1  0  0  0  0
  7 19  1  0  0  0  0
  7 23  1  0  0  0  0
  8 15  1  0  0  0  0
  8 16  1  0  0  0  0
  8 18  2  0  0  0  0
  8 22  1  0  0  0  0
  9 12  1  0  0  0  0
  9 14  1  0  0  0  0
  9 15  1  0  0  0  0
 10 19  1  0  0  0  0
 10 22  1  0  0  0  0
 12 14  1  0  0  0  0
 13 14  1  0  0  0  0
 13 17  1  0  0  0  0
 13 21  1  0  0  0  0
 14 15  1  0  0  0  0
 19 23  1  0  0  0  0
 20 21  1  0  0  0  0
M  END
>  <Original_Directory>
3qx9_A_rec_3lud_amp_lig_tt_docked_0_pocket10

>  <Original_Filename>
3qx9_A_rec_3lud_amp_lig_tt_docked_0_pocket10_gen_sample_5.sdf

>  <Molecule_ID>
sample_5

>  <logS>
-0.056620002

$$$$