/tmp/tmpdcjofr7b
  MOE2022           3D

  7  6  0  0  0  0  0  0  0  0999 V2000
  -11.1280  -20.7620   30.2440 C   0  0  0  0  0  0  0  0  0  0  0  0
  -11.8480  -20.8800   31.5660 C   0  0  0  0  0  0  0  0  0  0  0  0
  -10.2910  -21.9850   29.9180 C   0  0  0  0  0  0  0  0  0  0  0  0
  -11.1510  -22.6880   27.4790 O   0  0  0  0  0  0  0  0  0  0  0  0
  -12.5860  -23.3270   29.3620 O   0  0  0  0  0  0  0  0  0  0  0  0
  -10.4820  -24.4780   29.0620 O   0  0  0  0  0  0  0  0  0  0  0  0
  -11.1760  -23.1750   28.9020 P   0  0  0  0  0  0  0  0  0  0  0  0
  1  2  1  0  0  0  0
  1  3  1  0  0  0  0
  3  7  1  0  0  0  0
  4  7  2  0  0  0  0
  5  7  1  0  0  0  0
  6  7  1  0  0  0  0
M  END
>  <Original_Directory>
4jnk_B_rec_4aj1_mli_lig_tt_docked_1_pocket10

>  <Original_Filename>
4jnk_B_rec_4aj1_mli_lig_tt_docked_1_pocket10_gen_sample_15.sdf

>  <Molecule_ID>
sample_15

>  <logS>
0.55000001

$$$$