/tmp/tmpnc1t46zt
  MOE2022           3D

 27 30  0  0  1  0  0  0  0  0999 V2000
    2.1950    6.4670   19.2630 C   0  0  0  0  0  0  0  0  0  0  0  0
    6.3050    7.5230   18.2430 C   0  0  0  0  0  0  0  0  0  0  0  0
    7.1320    8.9020   24.3050 C   0  0  0  0  0  0  0  0  0  0  0  0
    6.6380    7.4460   24.4060 C   0  0  3  0  0  0  0  0  0  0  0  0
    3.4370    5.8160   19.3690 C   0  0  0  0  0  0  0  0  0  0  0  0
    5.6460    8.4040   20.3200 C   0  0  0  0  0  0  0  0  0  0  0  0
   -0.1400    7.6440   17.6150 N   0  0  0  0  0  0  0  0  0  0  0  0
    5.4740    7.4850   19.3250 N   0  0  0  0  0  0  0  0  0  0  0  0
    3.4730    4.4160   19.2390 C   0  0  0  0  0  0  0  0  0  0  0  0
    7.7830    9.0490   22.9430 C   0  0  0  0  0  0  0  0  0  0  0  0
    1.3540    4.5260   18.0720 C   0  0  0  0  0  0  0  0  0  0  0  0
    2.4320    3.7880   18.5540 C   0  0  0  0  0  0  0  0  0  0  0  0
    7.8300    8.7530   16.8110 C   0  0  0  0  0  0  0  0  0  0  0  0
    8.2610    7.5630   16.2390 C   0  0  0  0  0  0  0  0  0  0  0  0
    6.8270    8.7370   17.7810 C   0  0  0  0  0  0  0  0  0  0  0  0
    5.4750    9.6020   20.1330 O   0  0  0  0  0  0  0  0  0  0  0  0
    6.0030    7.8420   21.6610 C   0  0  3  0  0  0  0  0  0  0  0  0
    7.4230    7.7810   22.2020 C   0  0  3  0  0  0  0  0  0  0  0  0
    4.6170    6.4690   19.5790 C   0  0  0  0  0  0  0  0  0  0  0  0
    7.6560    6.3740   16.6000 C   0  0  0  0  0  0  0  0  0  0  0  0
    4.8420    7.9230   22.6400 C   0  0  0  0  0  0  0  0  0  0  0  0
    6.6390    6.3680   17.5490 C   0  0  0  0  0  0  0  0  0  0  0  0
    1.1620    5.8280   18.5670 C   0  0  0  0  0  0  0  0  0  0  0  0
    7.4200    6.7240   23.3110 C   0  0  0  0  0  0  0  0  0  0  0  0
    5.1520    7.3730   24.0240 C   0  0  0  0  0  0  0  0  0  0  0  0
   -0.1190    6.5510   18.3550 C   0  0  0  0  0  0  0  0  0  0  0  0
   -1.2380    6.1370   18.9050 N   0  0  0  0  0  0  0  0  0  0  0  0
  1  5  1  0  0  0  0
  1 23  2  0  0  0  0
  2  8  1  0  0  0  0
  2 15  2  0  0  0  0
  2 22  1  0  0  0  0
  3  4  1  0  0  0  0
  3 10  1  0  0  0  0
  4 24  1  0  0  0  0
  4 25  1  0  0  0  0
  5  9  2  0  0  0  0
  5 19  1  0  0  0  0
  6  8  1  0  0  0  0
  6 16  2  0  0  0  0
  6 17  1  0  0  0  0
  7 26  2  0  0  0  0
  8 19  1  0  0  0  0
  9 12  1  0  0  0  0
 10 18  1  0  0  0  0
 11 12  2  0  0  0  0
 11 23  1  0  0  0  0
 13 14  2  0  0  0  0
 13 15  1  0  0  0  0
 14 20  1  0  0  0  0
 17 18  1  0  0  0  0
 17 21  1  0  0  0  0
 18 24  1  0  0  0  0
 20 22  2  0  0  0  0
 21 25  1  0  0  0  0
 23 26  1  0  0  0  0
 26 27  1  0  0  0  0
M  END
>  <Original_Directory>
3fr5_A_rec_3fr4_f8a_lig_tt_docked_0_pocket10

>  <Original_Filename>
3fr5_A_rec_3fr4_f8a_lig_tt_docked_0_pocket10_gen_sample_17.sdf

>  <Molecule_ID>
sample_17

>  <logS>
-6.4846802

$$$$