/tmp/tmpi7ufx_zl
  MOE2022           3D

 26 28  0  0  0  0  0  0  0  0999 V2000
  -13.1460   17.0990   28.1690 C   0  0  0  0  0  0  0  0  0  0  0  0
  -11.9680   13.6480   25.9340 C   0  0  0  0  0  0  0  0  0  0  0  0
  -11.7100   15.5660   23.7770 C   0  0  0  0  0  0  0  0  0  0  0  0
  -12.0300   18.1530   30.1230 C   0  0  0  0  0  0  0  0  0  0  0  0
  -13.4980   20.8520   32.3580 C   0  0  0  0  0  0  0  0  0  0  0  0
  -12.8820   18.2720   29.0280 C   0  0  0  0  0  0  0  0  0  0  0  0
  -12.1100   19.0860   31.1560 C   0  0  0  0  0  0  0  0  0  0  0  0
   -7.7110   12.0310   24.8030 O   0  0  0  0  0  0  0  0  0  0  0  0
  -11.1480   19.1070   32.1190 O   0  0  0  0  0  0  0  0  0  0  0  0
  -12.5000   17.0470   26.9570 N   0  0  0  0  0  0  0  0  0  0  0  0
   -8.8690   12.4900   24.1700 C   0  0  0  0  0  0  0  0  0  0  0  0
   -8.4770   13.8430   23.6760 C   0  0  0  0  0  0  0  0  0  0  0  0
  -12.4660   16.2760   24.6860 C   0  0  0  0  0  0  0  0  0  0  0  0
  -13.8090   20.2790   29.9480 C   0  0  0  0  0  0  0  0  0  0  0  0
  -13.6190   19.4350   28.8650 C   0  0  0  0  0  0  0  0  0  0  0  0
   -9.4360   14.8000   23.5040 C   0  0  0  0  0  0  0  0  0  0  0  0
  -10.7060   14.6590   24.1030 C   0  0  0  0  0  0  0  0  0  0  0  0
  -10.0020   12.5570   25.1440 C   0  0  0  0  0  0  0  0  0  0  0  0
  -10.9350   13.6400   25.0150 C   0  0  0  0  0  0  0  0  0  0  0  0
  -13.1440   20.0320   31.1520 C   0  0  0  0  0  0  0  0  0  0  0  0
  -12.5780   15.9950   26.0330 C   0  0  0  0  0  0  0  0  0  0  0  0
  -12.7060   14.6850   26.4230 C   0  0  0  0  0  0  0  0  0  0  0  0
  -14.1710   21.8920   32.2120 O   0  0  0  0  0  0  0  0  0  0  0  0
  -13.9070   16.2350   28.5360 O   0  0  0  0  0  0  0  0  0  0  0  0
  -13.1620   20.4470   33.4800 O   0  0  0  0  0  0  0  0  0  0  0  0
   -9.1320   11.5990   23.1330 O   0  0  0  0  0  0  0  0  0  0  0  0
  1  6  1  0  0  0  0
  1 10  1  0  0  0  0
  1 24  2  0  0  0  0
  2 19  2  0  0  0  0
  2 22  1  0  0  0  0
  3 13  1  0  0  0  0
  3 17  2  0  0  0  0
  4  6  1  0  0  0  0
  4  7  2  0  0  0  0
  5 20  1  0  0  0  0
  5 23  2  0  0  0  0
  5 25  1  0  0  0  0
  6 15  2  0  0  0  0
  7  9  1  0  0  0  0
  7 20  1  0  0  0  0
  8 11  1  0  0  0  0
 10 21  1  0  0  0  0
 11 12  1  0  0  0  0
 11 18  1  0  0  0  0
 11 26  1  0  0  0  0
 12 16  1  0  0  0  0
 13 21  2  0  0  0  0
 14 15  1  0  0  0  0
 14 20  2  0  0  0  0
 16 17  1  0  0  0  0
 17 19  1  0  0  0  0
 18 19  1  0  0  0  0
 21 22  1  0  0  0  0
M  END
>  <Original_Directory>
1pvd_B_rec_1pyd_tdp_lig_tt_min_0_pocket10

>  <Original_Filename>
1pvd_B_rec_1pyd_tdp_lig_tt_min_0_pocket10_gen_sample_8.sdf

>  <Molecule_ID>
sample_8

>  <logS>
-2.5367401

$$$$