/tmp/tmpbeq1ptc8
  MOE2022           3D

 20 23  0  0  1  0  0  0  0  0999 V2000
   14.0000   12.2680   18.3910 C   0  0  0  0  0  0  0  0  0  0  0  0
   17.0150   10.9650   16.4970 C   0  0  0  0  0  0  0  0  0  0  0  0
   18.7960    8.7250   12.9610 C   0  0  0  0  0  0  0  0  0  0  0  0
   12.2520   11.0920   19.7270 C   0  0  0  0  0  0  0  0  0  0  0  0
   19.3920    5.9860   12.7890 C   0  0  0  0  0  0  0  0  0  0  0  0
   17.9580    6.2870   13.2860 C   0  0  0  0  0  0  0  0  0  0  0  0
   15.7350   10.9920   17.3290 C   0  0  0  0  0  0  0  0  0  0  0  0
   16.1800    9.2430   14.7940 C   0  0  0  0  0  0  0  0  0  0  0  0
   20.1010    7.2860   12.2960 C   0  0  0  0  0  0  0  0  0  0  0  0
   14.4900   10.0660   19.1740 C   0  0  0  0  0  0  0  0  0  0  0  0
   18.4860   10.2250   13.0600 C   0  0  0  0  0  0  0  0  0  0  0  0
   15.4500    9.9240   18.1770 C   0  0  0  0  0  0  0  0  0  0  0  0
   17.9470   10.7950   14.1960 C   0  0  0  0  0  0  0  0  0  0  0  0
   17.7090    7.7810   13.4790 C   0  0  3  0  0  0  0  0  0  0  0  0
   14.9420   12.1410   17.3720 C   0  0  0  0  0  0  0  0  0  0  0  0
   13.6510   11.1580   19.1500 C   0  0  0  0  0  0  0  0  0  0  0  0
   17.0290   10.2950   15.1340 C   0  0  3  0  0  0  0  0  0  0  0  0
   16.4870    8.1900   13.9210 C   0  0  0  0  0  0  0  0  0  0  0  0
   20.1990    8.2910   13.4550 C   0  0  0  0  0  0  0  0  0  0  0  0
   19.1160    8.2120   11.5330 C   0  0  0  0  0  0  0  0  0  0  0  0
  1 15  1  0  0  0  0
  1 16  2  0  0  0  0
  2  7  1  0  0  0  0
  2 17  1  0  0  0  0
  3 11  1  0  0  0  0
  3 14  1  0  0  0  0
  3 19  1  0  0  0  0
  3 20  1  0  0  0  0
  4 16  1  0  0  0  0
  5  6  1  0  0  0  0
  5  9  1  0  0  0  0
  6 14  1  0  0  0  0
  7 12  1  0  0  0  0
  7 15  2  0  0  0  0
  8 17  1  0  0  0  0
  8 18  1  0  0  0  0
  9 19  1  0  0  0  0
  9 20  1  0  0  0  0
 10 12  2  0  0  0  0
 10 16  1  0  0  0  0
 11 13  1  0  0  0  0
 13 17  1  0  0  0  0
 14 18  1  0  0  0  0
M  END
>  <Original_Directory>
5alr_A_rec_3ans_s38_lig_tt_docked_1_pocket10

>  <Original_Filename>
5alr_A_rec_3ans_s38_lig_tt_docked_1_pocket10_gen_sample_3.sdf

>  <Molecule_ID>
sample_3

>  <logS>
-8.20924

$$$$