/tmp/tmpeum54kmc
  MOE2022           3D

 35 38  0  0  1  0  0  0  0  0999 V2000
  -16.8990    7.4470    2.4800 C   0  0  0  0  0  0  0  0  0  0  0  0
  -16.3630    7.2850   -4.3530 C   0  0  0  0  0  0  0  0  0  0  0  0
  -16.0520    6.0190   -4.9020 C   0  0  0  0  0  0  0  0  0  0  0  0
  -14.7620   10.8490    5.2900 C   0  0  0  0  0  0  0  0  0  0  0  0
  -18.3260    5.4350   -5.2110 O   0  0  0  0  0  0  0  0  0  0  0  0
  -13.3900    2.5790   -6.1840 C   0  0  0  0  0  0  0  0  0  0  0  0
  -16.2190    9.6730    3.5850 C   0  0  0  0  0  0  0  0  0  0  0  0
  -19.0880    9.5850    0.9040 O   0  0  0  0  0  0  0  0  0  0  0  0
  -17.0980    4.2530   -3.7700 O   0  0  0  0  0  0  0  0  0  0  0  0
  -16.3390    8.5840   -1.0250 C   0  0  0  0  0  0  0  0  0  0  0  0
  -15.9260    8.3290    2.9760 C   0  0  3  0  0  0  0  0  0  0  0  0
  -14.3880    3.5410   -6.0560 C   0  0  3  0  0  0  0  0  0  0  0  0
  -15.7760    9.7280    5.0630 C   0  0  3  0  0  0  0  0  0  0  0  0
  -14.9100    8.2830   -5.9910 C   0  0  0  0  0  0  0  0  0  0  0  0
  -16.8860    9.4200    0.0000 C   0  0  0  0  0  0  0  0  0  0  0  0
  -15.4530    8.0210    6.6520 O   0  0  0  0  0  0  0  0  0  0  0  0
  -14.5290    7.5510    4.6390 N   0  0  0  0  0  0  0  0  0  0  0  0
  -17.0300    7.3990   -3.1370 C   0  0  0  0  0  0  0  0  0  0  0  0
  -18.0300    8.9190    0.8420 C   0  0  0  0  0  0  0  0  0  0  0  0
  -15.6660    3.3130   -6.6170 C   0  0  0  0  0  0  0  0  0  0  0  0
  -16.9500    3.8570   -6.0820 C   0  0  0  0  0  0  0  0  0  0  0  0
  -15.8550    2.5030   -7.7190 C   0  0  0  0  0  0  0  0  0  0  0  0
  -13.5010    1.2530   -6.5180 C   0  0  0  0  0  0  0  0  0  0  0  0
  -17.0580    4.9070   -4.9720 C   0  0  0  0  0  0  0  0  0  0  0  0
  -16.9550    8.3640   -2.2050 C   0  0  0  0  0  0  0  0  0  0  0  0
  -16.4600   10.5550    0.2260 O   0  0  0  0  0  0  0  0  0  0  0  0
  -14.4940    0.5730   -7.1730 C   0  0  0  0  0  0  0  0  0  0  0  0
  -15.9580    8.4110   -5.0920 C   0  0  0  0  0  0  0  0  0  0  0  0
  -15.1780    8.3880    5.5050 C   0  0  0  0  0  0  0  0  0  0  0  0
  -17.8830    7.7190    1.5980 C   0  0  0  0  0  0  0  0  0  0  0  0
  -14.2970    7.0460   -6.1890 C   0  0  0  0  0  0  0  0  0  0  0  0
  -15.5490    1.1630   -7.8320 C   0  0  0  0  0  0  0  0  0  0  0  0
  -14.5250    7.8130    3.1900 C   0  0  0  0  0  0  0  0  0  0  0  0
  -14.7800    5.9260   -5.5000 C   0  0  0  0  0  0  0  0  0  0  0  0
  -14.0420    4.7280   -5.3520 C   0  0  0  0  0  0  0  0  0  0  0  0
  1 11  1  0  0  0  0
  1 30  2  0  0  0  0
  2  3  2  0  0  0  0
  2 18  1  0  0  0  0
  2 28  1  0  0  0  0
  3 24  1  0  0  0  0
  3 34  1  0  0  0  0
  4 13  1  0  0  0  0
  5 24  1  0  0  0  0
  6 12  1  0  0  0  0
  6 23  2  0  0  0  0
  7 11  1  0  0  0  0
  7 13  1  0  0  0  0
  8 19  2  0  0  0  0
  9 24  1  0  0  0  0
 10 15  1  0  0  0  0
 10 25  1  0  0  0  0
 11 33  1  0  0  0  0
 12 20  1  0  0  0  0
 12 35  1  0  0  0  0
 13 29  1  0  0  0  0
 14 28  2  0  0  0  0
 14 31  1  0  0  0  0
 15 19  1  0  0  0  0
 15 26  2  0  0  0  0
 16 29  2  0  0  0  0
 17 29  1  0  0  0  0
 17 33  1  0  0  0  0
 18 25  1  0  0  0  0
 19 30  1  0  0  0  0
 20 21  1  0  0  0  0
 20 22  2  0  0  0  0
 21 24  1  0  0  0  0
 22 32  1  0  0  0  0
 23 27  1  0  0  0  0
 27 32  2  0  0  0  0
 31 34  2  0  0  0  0
 34 35  1  0  0  0  0
M  END
>  <Original_Directory>
1rkg_A_rec_2har_occ_lig_tt_docked_0_pocket10

>  <Original_Filename>
1rkg_A_rec_2har_occ_lig_tt_docked_0_pocket10_gen_sample_1.sdf

>  <Molecule_ID>
sample_1

>  <logS>
-5.0984201

$$$$