/tmp/tmp01jt0z_4
  MOE2022           3D

 17 19  0  0  1  0  0  0  0  0999 V2000
    5.2440  -11.1980  -13.7940 O   0  0  0  0  0  0  0  0  0  0  0  0
    3.8370  -13.8720  -15.7250 O   0  0  0  0  0  0  0  0  0  0  0  0
    2.7070  -12.8110  -14.0140 C   0  0  0  0  0  0  0  0  0  0  0  0
    5.3430  -14.4150  -10.4610 N   0  0  0  0  0  0  0  0  0  0  0  0
    4.9530  -12.2420  -13.2250 C   0  0  0  0  0  0  0  0  0  0  0  0
    7.3890  -14.6950  -11.7260 C   0  0  0  0  0  0  0  0  0  0  0  0
    4.9240  -13.6560  -11.4990 C   0  0  0  0  0  0  0  0  0  0  0  0
    1.6970  -13.1420  -15.9540 N   0  0  0  0  0  0  0  0  0  0  0  0
    2.2870  -13.2380  -10.7970 Cl  0  0  0  0  0  0  0  0  0  0  0  0
    3.6590  -12.6600  -13.0440 N   0  0  0  0  0  0  0  0  0  0  0  0
    0.7810  -12.7270  -15.0680 C   0  0  0  0  0  0  0  0  0  0  0  0
    1.4160  -12.3830  -13.8960 C   0  0  0  0  0  0  0  0  0  0  0  0
    5.7570  -13.1470  -12.4850 C   0  0  0  0  0  0  0  0  0  0  0  0
    3.6340  -13.2540  -11.8150 C   0  0  3  0  0  0  0  0  0  0  0  0
    6.6000  -14.8850  -10.6020 C   0  0  0  0  0  0  0  0  0  0  0  0
    6.9810  -13.7640  -12.6720 C   0  0  0  0  0  0  0  0  0  0  0  0
    2.8460  -13.2970  -15.2810 C   0  0  0  0  0  0  0  0  0  0  0  0
  1  5  2  0  0  0  0
  2 17  2  0  0  0  0
  3 10  1  0  0  0  0
  3 12  2  0  0  0  0
  3 17  1  0  0  0  0
  4  7  1  0  0  0  0
  4 15  2  0  0  0  0
  5 10  1  0  0  0  0
  5 13  1  0  0  0  0
  6 15  1  0  0  0  0
  6 16  2  0  0  0  0
  7 13  2  0  0  0  0
  7 14  1  0  0  0  0
  8 11  2  0  0  0  0
  8 17  1  0  0  0  0
  9 14  1  0  0  0  0
 10 14  1  0  0  0  0
 11 12  1  0  0  0  0
 13 16  1  0  0  0  0
M  END
>  <Original_Directory>
5dyc_A_rec_5ewc_5sj_lig_tt_docked_5_pocket10

>  <Original_Filename>
5dyc_A_rec_5ewc_5sj_lig_tt_docked_5_pocket10_gen_sample_1.sdf

>  <Molecule_ID>
sample_1

>  <logS>
-2.32305

$$$$