/tmp/tmpeorlz1vt
  MOE2022           3D

 17 20  0  0  1  0  0  0  0  0999 V2000
   18.2990   12.6620   67.8360 C   0  0  0  0  0  0  0  0  0  0  0  0
   20.8370   16.0660   67.1050 C   0  0  3  0  0  0  0  0  0  0  0  0
   19.3330   14.7470   68.7130 C   0  0  0  0  0  0  0  0  0  0  0  0
   22.4730   19.7910   69.0410 C   0  0  0  0  0  0  0  0  0  0  0  0
   22.2390   16.7440   67.0740 C   0  0  0  0  0  0  0  0  0  0  0  0
   18.1350   12.3070   65.4600 C   0  0  0  0  0  0  0  0  0  0  0  0
   19.2020   13.7000   67.6200 C   0  0  0  0  0  0  0  0  0  0  0  0
   20.3080   16.9260   69.3980 C   0  0  0  0  0  0  0  0  0  0  0  0
   19.0550   13.3350   65.2410 C   0  0  0  0  0  0  0  0  0  0  0  0
   17.7650   11.9630   66.7530 C   0  0  0  0  0  0  0  0  0  0  0  0
   19.6220   14.0040   66.3150 C   0  0  0  0  0  0  0  0  0  0  0  0
   22.1500   17.9660   67.9730 C   0  0  3  0  0  0  0  0  0  0  0  0
   22.9430   19.0560   68.0120 N   0  0  0  0  0  0  0  0  0  0  0  0
   20.5880   15.6310   68.5800 C   0  0  3  0  0  0  0  0  0  0  0  0
   21.7740   18.9950   69.8820 N   0  0  0  0  0  0  0  0  0  0  0  0
   21.4520   17.8970   69.1700 C   0  0  3  0  0  0  0  0  0  0  0  0
   20.8640   14.8560   66.1380 C   0  0  0  0  0  0  0  0  0  0  0  0
  1  7  1  0  0  0  0
  1 10  2  0  0  0  0
  2  5  1  0  0  0  0
  2 14  1  0  0  0  0
  2 17  1  0  0  0  0
  3  7  1  0  0  0  0
  3 14  1  0  0  0  0
  4 13  1  0  0  0  0
  4 15  1  0  0  0  0
  5 12  1  0  0  0  0
  6  9  2  0  0  0  0
  6 10  1  0  0  0  0
  7 11  2  0  0  0  0
  8 14  1  0  0  0  0
  8 16  1  0  0  0  0
  9 11  1  0  0  0  0
 11 17  1  0  0  0  0
 12 13  1  0  0  0  0
 12 16  1  0  0  0  0
 15 16  1  0  0  0  0
M  END
>  <Original_Directory>
4rrx_A_rec_4fm5_df0_lig_tt_docked_0_pocket10

>  <Original_Filename>
4rrx_A_rec_4fm5_df0_lig_tt_docked_0_pocket10_gen_sample_1.sdf

>  <Molecule_ID>
sample_1

>  <logS>
-2.32394

$$$$