/tmp/tmpq04gsdxo
  MOE2022           3D

 27 29  0  0  1  0  0  0  0  0999 V2000
   10.1550   12.7520   21.7300 N   0  0  0  0  0  0  0  0  0  0  0  0
    7.6080   12.4000   15.5650 C   0  0  3  0  0  0  0  0  0  0  0  0
    8.2110   13.1440   14.4520 C   0  0  3  0  0  0  0  0  0  0  0  0
    5.5550   10.1070   13.4170 C   0  0  0  0  0  0  0  0  0  0  0  0
   12.9710   13.5200   14.4100 O   0  0  0  0  0  0  0  0  0  0  0  0
   11.2550   15.3150   18.2610 C   0  0  0  0  0  0  0  0  0  0  0  0
   10.7400   13.9910   18.2570 C   0  0  0  0  0  0  0  0  0  0  0  0
   12.1850   11.5620   15.1130 O   0  0  0  0  0  0  0  0  0  0  0  0
   11.0730   16.3090   19.2090 C   0  0  0  0  0  0  0  0  0  0  0  0
   10.7310   13.2780   17.0440 N   0  0  0  0  0  0  0  0  0  0  0  0
   10.2110   15.1210   21.2220 C   0  0  0  0  0  0  0  0  0  0  0  0
    9.6300   13.0370   16.2190 C   0  0  0  0  0  0  0  0  0  0  0  0
    7.5720   13.6410   13.4490 O   0  0  0  0  0  0  0  0  0  0  0  0
    5.6480    9.2920   16.3700 C   0  0  0  0  0  0  0  0  0  0  0  0
    9.5710   13.2350   14.8210 C   0  0  3  0  0  0  0  0  0  0  0  0
   10.2220   13.7660   20.7770 C   0  0  0  0  0  0  0  0  0  0  0  0
    6.2330   10.5550   16.4110 C   0  0  0  0  0  0  0  0  0  0  0  0
    6.6210   11.3600   15.3340 C   0  0  0  0  0  0  0  0  0  0  0  0
   10.4670   16.2520   20.4560 C   0  0  0  0  0  0  0  0  0  0  0  0
    8.4310   12.5570   16.6390 N   0  0  0  0  0  0  0  0  0  0  0  0
   10.7890   13.8960   12.8060 O   0  0  0  0  0  0  0  0  0  0  0  0
   12.0550   12.6670   14.5240 C   0  0  0  0  0  0  0  0  0  0  0  0
    5.2130    8.5440   15.3020 C   0  0  0  0  0  0  0  0  0  0  0  0
   10.7180   12.9840   13.8790 C   0  0  3  0  0  0  0  0  0  0  0  0
    6.0290   11.2420   14.0590 C   0  0  0  0  0  0  0  0  0  0  0  0
    5.3730    8.8190   13.9510 C   0  0  0  0  0  0  0  0  0  0  0  0
   10.3010   13.3590   19.4360 C   0  0  0  0  0  0  0  0  0  0  0  0
  1 16  1  0  0  0  0
  2  3  1  0  0  0  0
  2 18  1  0  0  0  0
  2 20  1  0  0  0  0
  3 13  1  0  0  0  0
  3 15  1  0  0  0  0
  4 25  1  0  0  0  0
  4 26  2  0  0  0  0
  5 22  2  0  0  0  0
  6  7  2  0  0  0  0
  6  9  1  0  0  0  0
  7 10  1  0  0  0  0
  7 27  1  0  0  0  0
  8 22  1  0  0  0  0
  9 19  1  0  0  0  0
 10 12  1  0  0  0  0
 11 16  1  0  0  0  0
 11 19  2  0  0  0  0
 12 15  1  0  0  0  0
 12 20  2  0  0  0  0
 14 17  1  0  0  0  0
 14 23  2  0  0  0  0
 15 24  1  0  0  0  0
 16 27  2  0  0  0  0
 17 18  2  0  0  0  0
 18 25  1  0  0  0  0
 21 24  1  0  0  0  0
 22 24  1  0  0  0  0
 23 26  1  0  0  0  0
M  END
>  <Original_Directory>
3dya_A_rec_1rt2_tnk_lig_tt_docked_0_pocket10

>  <Original_Filename>
3dya_A_rec_1rt2_tnk_lig_tt_docked_0_pocket10_gen_sample_7.sdf

>  <Molecule_ID>
sample_7

>  <logS>
-2.28245

$$$$