/tmp/tmpq7majksf
  MOE2022           3D

 34 40  0  0  1  0  0  0  0  0999 V2000
  -26.3070   25.7150  -16.3730 C   0  0  0  0  0  0  0  0  0  0  0  0
  -28.1090   24.5340  -15.0800 C   0  0  3  0  0  0  0  0  0  0  0  0
  -28.2250   21.1700  -19.4650 C   0  0  0  0  0  0  0  0  0  0  0  0
  -26.8860   22.3700  -17.8650 C   0  0  3  0  0  0  0  0  0  0  0  0
  -30.8470   19.2980  -19.0440 C   0  0  0  0  0  0  0  0  0  0  0  0
  -29.5840   20.0720  -16.9190 C   0  0  0  0  0  0  0  0  0  0  0  0
  -24.3760   23.0170  -20.1750 C   0  0  0  0  0  0  0  0  0  0  0  0
  -26.9410   23.4410  -16.8560 C   0  0  3  0  0  0  0  0  0  0  0  0
  -21.4980   20.7450  -19.3990 C   0  0  0  0  0  0  0  0  0  0  0  0
  -21.2190   21.9900  -18.6030 C   0  0  3  0  0  0  0  0  0  0  0  0
  -28.8980   21.2720  -17.0430 C   0  0  3  0  0  0  0  0  0  0  0  0
  -30.1850   19.8350  -20.2580 C   0  0  0  0  0  0  0  0  0  0  0  0
  -28.0050   21.5550  -18.1450 C   0  0  3  0  0  0  0  0  0  0  0  0
  -29.0010   22.3060  -15.9370 C   0  0  0  0  0  0  0  0  0  0  0  0
  -30.8130   19.8980  -21.5120 C   0  0  0  0  0  0  0  0  0  0  0  0
  -33.2270   20.0800  -20.9740 C   0  0  0  0  0  0  0  0  0  0  0  0
  -28.3610   23.6390  -16.3140 C   0  0  3  0  0  0  0  0  0  0  0  0
  -22.5910   22.6880  -18.3810 C   0  0  0  0  0  0  0  0  0  0  0  0
  -32.1440   18.7820  -19.1190 C   0  0  0  0  0  0  0  0  0  0  0  0
  -26.5960   24.7640  -17.5310 C   0  0  3  0  0  0  0  0  0  0  0  0
  -29.4560   24.8080  -14.6920 O   0  0  0  0  0  0  0  0  0  0  0  0
  -22.2450   21.5010  -20.4850 C   0  0  3  0  0  0  0  0  0  0  0  0
  -25.5570   24.6720  -18.6340 C   0  0  0  0  0  0  0  0  0  0  0  0
  -30.1790   19.1830  -17.7810 C   0  0  0  0  0  0  0  0  0  0  0  0
  -24.6320   23.2380  -21.4400 N   0  0  0  0  0  0  0  0  0  0  0  0
  -25.2610   23.3500  -19.2010 N   0  0  0  0  0  0  0  0  0  0  0  0
  -23.2360   22.3090  -19.7240 C   0  0  3  0  0  0  0  0  0  0  0  0
  -33.2220   19.2760  -19.8530 C   0  0  0  0  0  0  0  0  0  0  0  0
  -21.1930   22.4780  -20.9580 C   0  0  0  0  0  0  0  0  0  0  0  0
  -27.6150   25.8920  -15.6020 C   0  0  0  0  0  0  0  0  0  0  0  0
  -32.1400   20.2000  -21.8390 C   0  0  0  0  0  0  0  0  0  0  0  0
  -25.7310   22.1910  -18.5930 C   0  0  0  0  0  0  0  0  0  0  0  0
  -28.8160   20.2140  -20.2100 C   0  0  0  0  0  0  0  0  0  0  0  0
  -20.5390   22.8960  -19.6450 C   0  0  0  0  0  0  0  0  0  0  0  0
  1 20  1  0  0  0  0
  1 30  1  0  0  0  0
  2 17  1  0  0  0  0
  2 21  1  0  0  0  0
  2 30  1  0  0  0  0
  3 13  1  0  0  0  0
  3 33  1  0  0  0  0
  4  8  1  0  0  0  0
  4 13  1  0  0  0  0
  4 32  1  0  0  0  0
  5 12  2  0  0  0  0
  5 19  1  0  0  0  0
  5 24  1  0  0  0  0
  6 11  1  0  0  0  0
  6 24  1  0  0  0  0
  7 25  2  0  0  0  0
  7 26  1  0  0  0  0
  7 27  1  0  0  0  0
  8 17  1  0  0  0  0
  8 20  1  0  0  0  0
  9 10  1  0  0  0  0
  9 22  1  0  0  0  0
 10 18  1  0  0  0  0
 10 34  1  0  0  0  0
 11 13  1  0  0  0  0
 11 14  1  0  0  0  0
 12 15  1  0  0  0  0
 12 33  1  0  0  0  0
 14 17  1  0  0  0  0
 15 31  2  0  0  0  0
 16 28  2  0  0  0  0
 16 31  1  0  0  0  0
 18 27  1  0  0  0  0
 19 28  1  0  0  0  0
 20 23  1  0  0  0  0
 22 27  1  0  0  0  0
 22 29  1  0  0  0  0
 23 26  1  0  0  0  0
 26 32  1  0  0  0  0
 29 34  1  0  0  0  0
M  END
>  <Original_Directory>
5lny_A_rec_5lny_70k_lig_tt_min_0_pocket10

>  <Original_Filename>
5lny_A_rec_5lny_70k_lig_tt_min_0_pocket10_gen_sample_10.sdf

>  <Molecule_ID>
sample_10

>  <logS>
-7.1971698

$$$$