/tmp/tmp3emooxb8
  MOE2022           3D

 34 39  0  0  1  0  0  0  0  0999 V2000
  -29.4470   21.3670  -16.1020 C   0  0  0  0  0  0  0  0  0  0  0  0
  -24.2370   22.8610  -18.9300 C   0  0  0  0  0  0  0  0  0  0  0  0
  -31.8920   17.1640  -19.8330 C   0  0  3  0  0  0  0  0  0  0  0  0
  -30.6720   18.4070  -18.0970 C   0  0  0  0  0  0  0  0  0  0  0  0
  -28.9150   24.6000  -15.1680 O   0  0  0  0  0  0  0  0  0  0  0  0
  -29.2870   20.3900  -18.7200 C   0  0  0  0  0  0  0  0  0  0  0  0
  -28.1220   23.3370  -17.0310 C   0  0  0  0  0  0  0  0  0  0  0  0
  -28.7770   21.6300  -18.4010 C   0  0  0  0  0  0  0  0  0  0  0  0
  -21.6700   22.3540  -21.5770 C   0  0  0  0  0  0  0  0  0  0  0  0
  -27.9700   22.5060  -19.2180 C   0  0  0  0  0  0  0  0  0  0  0  0
  -31.0560   16.6920  -20.7960 O   0  0  0  0  0  0  0  0  0  0  0  0
  -26.2610   24.1430  -18.3090 C   0  0  3  0  0  0  0  0  0  0  0  0
  -33.8460   19.0090  -19.7890 C   0  0  0  0  0  0  0  0  0  0  0  0
  -26.0720   25.1780  -17.3860 C   0  0  0  0  0  0  0  0  0  0  0  0
  -25.3120   23.6630  -19.3120 C   0  0  3  0  0  0  0  0  0  0  0  0
  -33.1790   16.6920  -19.5990 C   0  0  0  0  0  0  0  0  0  0  0  0
  -20.9980   21.8080  -20.3340 C   0  0  3  0  0  0  0  0  0  0  0  0
  -28.0120   24.4070  -16.1350 C   0  0  0  0  0  0  0  0  0  0  0  0
  -24.1320   22.4470  -22.0000 C   0  0  0  0  0  0  0  0  0  0  0  0
  -23.0900   22.5780  -21.1160 C   0  0  0  0  0  0  0  0  0  0  0  0
  -19.7060   22.2830  -20.2240 F   0  0  0  0  0  0  0  0  0  0  0  0
  -25.6370   23.8580  -20.6500 C   0  0  0  0  0  0  0  0  0  0  0  0
  -26.9430   25.2920  -16.2930 C   0  0  0  0  0  0  0  0  0  0  0  0
  -29.9390   19.6620  -17.7320 C   0  0  0  0  0  0  0  0  0  0  0  0
  -29.9700   20.1290  -16.4250 C   0  0  0  0  0  0  0  0  0  0  0  0
  -32.5230   19.4220  -19.5930 C   0  0  0  0  0  0  0  0  0  0  0  0
  -27.4770   23.4810  -18.2690 C   0  0  0  0  0  0  0  0  0  0  0  0
  -30.5370   15.3730  -20.6330 C   0  0  0  0  0  0  0  0  0  0  0  0
  -28.8750   22.1480  -17.0920 C   0  0  0  0  0  0  0  0  0  0  0  0
  -23.2160   22.3480  -19.7120 C   0  0  0  0  0  0  0  0  0  0  0  0
  -25.3470   23.1060  -21.7620 C   0  0  0  0  0  0  0  0  0  0  0  0
  -34.1410   17.6970  -19.3210 C   0  0  0  0  0  0  0  0  0  0  0  0
  -31.6140   18.3940  -19.2440 C   0  0  3  0  0  0  0  0  0  0  0  0
  -21.8130   22.2650  -19.1360 C   0  0  0  0  0  0  0  0  0  0  0  0
  1 25  2  0  0  0  0
  1 29  1  0  0  0  0
  2 15  1  0  0  0  0
  2 30  2  0  0  0  0
  3 11  1  0  0  0  0
  3 16  1  0  0  0  0
  3 33  1  0  0  0  0
  4 24  1  0  0  0  0
  4 33  1  0  0  0  0
  5 18  1  0  0  0  0
  6  8  1  0  0  0  0
  6 24  2  0  0  0  0
  7 18  2  0  0  0  0
  7 27  1  0  0  0  0
  7 29  1  0  0  0  0
  8 10  1  0  0  0  0
  8 29  2  0  0  0  0
  9 17  1  0  0  0  0
  9 20  1  0  0  0  0
 10 27  2  0  0  0  0
 11 28  1  0  0  0  0
 12 14  1  0  0  0  0
 12 15  1  0  0  0  0
 12 27  1  0  0  0  0
 13 26  1  0  0  0  0
 13 32  1  0  0  0  0
 14 23  2  0  0  0  0
 15 22  1  0  0  0  0
 16 32  1  0  0  0  0
 17 21  1  0  0  0  0
 17 34  1  0  0  0  0
 18 23  1  0  0  0  0
 19 20  2  0  0  0  0
 19 31  1  0  0  0  0
 20 30  1  0  0  0  0
 22 31  2  0  0  0  0
 24 25  1  0  0  0  0
 26 33  1  0  0  0  0
 30 34  1  0  0  0  0
M  END
>  <Original_Directory>
5lny_A_rec_5lny_70k_lig_tt_min_0_pocket10

>  <Original_Filename>
5lny_A_rec_5lny_70k_lig_tt_min_0_pocket10_gen_sample_8.sdf

>  <Molecule_ID>
sample_8

>  <logS>
-6.4254799

$$$$