/tmp/tmpg6jp5atu
  MOE2022           3D

 16 18  0  0  1  0  0  0  0  0999 V2000
   -1.1160    2.7450   10.0770 C   0  0  0  0  0  0  0  0  0  0  0  0
   -6.7380   -2.1880    6.8460 C   0  0  0  0  0  0  0  0  0  0  0  0
    0.2010    3.0880   10.0640 O   0  0  0  0  0  0  0  0  0  0  0  0
   -1.4160    1.3890   10.2730 C   0  0  0  0  0  0  0  0  0  0  0  0
   -6.0610    0.1460    6.8360 C   0  0  0  0  0  0  0  0  0  0  0  0
   -4.4440   -0.2620    9.2260 C   0  0  3  0  0  0  0  0  0  0  0  0
   -6.9300    0.4610    6.0460 O   0  0  0  0  0  0  0  0  0  0  0  0
   -6.0330   -1.0880    7.4970 N   0  0  0  0  0  0  0  0  0  0  0  0
   -4.9640    1.1420    7.1200 C   0  0  0  0  0  0  0  0  0  0  0  0
   -2.6480    0.9240    9.8600 C   0  0  0  0  0  0  0  0  0  0  0  0
   -3.4480    1.7380    9.0510 C   0  0  0  0  0  0  0  0  0  0  0  0
   -5.0240   -1.4510    8.4880 C   0  0  0  0  0  0  0  0  0  0  0  0
   -3.2110    3.1030    8.9550 C   0  0  0  0  0  0  0  0  0  0  0  0
   -3.0540   -0.4290    9.5980 O   0  0  0  0  0  0  0  0  0  0  0  0
   -4.3270    0.9260    8.3930 N   0  0  0  0  0  0  0  0  0  0  0  0
   -2.0050    3.5900    9.4380 C   0  0  0  0  0  0  0  0  0  0  0  0
  1  3  1  0  0  0  0
  1  4  1  0  0  0  0
  1 16  2  0  0  0  0
  2  8  1  0  0  0  0
  4 10  2  0  0  0  0
  5  7  2  0  0  0  0
  5  8  1  0  0  0  0
  5  9  1  0  0  0  0
  6 12  1  0  0  0  0
  6 14  1  0  0  0  0
  6 15  1  0  0  0  0
  8 12  1  0  0  0  0
  9 15  1  0  0  0  0
 10 11  1  0  0  0  0
 10 14  1  0  0  0  0
 11 13  2  0  0  0  0
 11 15  1  0  0  0  0
 13 16  1  0  0  0  0
M  END
>  <Original_Directory>
5hco_A_rec_4y3d_45n_lig_tt_min_0_pocket10

>  <Original_Filename>
5hco_A_rec_4y3d_45n_lig_tt_min_0_pocket10_gen_sample_16.sdf

>  <Molecule_ID>
sample_16

>  <logS>
-1.24571

$$$$