/tmp/tmpufzy9olc
  MOE2022           3D

 25 29  0  0  1  0  0  0  0  0999 V2000
   21.4610   18.3160   69.5270 C   0  0  0  0  0  0  0  0  0  0  0  0
   20.8140   17.0950   69.4340 C   0  0  0  0  0  0  0  0  0  0  0  0
   22.2320   18.6800   68.4220 C   0  0  0  0  0  0  0  0  0  0  0  0
   21.6270   20.3940   70.8120 C   0  0  0  0  0  0  0  0  0  0  0  0
   18.8800   13.4440   69.1760 C   0  0  0  0  0  0  0  0  0  0  0  0
   19.7420   12.9510   65.7820 C   0  0  0  0  0  0  0  0  0  0  0  0
   21.8290   21.0940   68.4840 C   0  0  0  0  0  0  0  0  0  0  0  0
   18.4160   13.5450   67.7640 C   0  0  0  0  0  0  0  0  0  0  0  0
   20.5470   15.1460   68.2990 N   0  0  0  0  0  0  0  0  0  0  0  0
   21.4080   16.1620   68.5940 C   0  0  0  0  0  0  0  0  0  0  0  0
   19.5870   15.3270   70.5900 C   0  0  0  0  0  0  0  0  0  0  0  0
   17.0720   13.3490   67.4850 C   0  0  0  0  0  0  0  0  0  0  0  0
   20.1520   15.0010   67.0110 C   0  0  0  0  0  0  0  0  0  0  0  0
   20.4650   15.7650   66.1080 O   0  0  0  0  0  0  0  0  0  0  0  0
   16.7160   12.5590   66.3840 C   0  0  0  0  0  0  0  0  0  0  0  0
   22.6380   16.3690   67.9770 C   0  0  0  0  0  0  0  0  0  0  0  0
   18.9000   11.9330   65.3690 C   0  0  0  0  0  0  0  0  0  0  0  0
   21.6910   21.3060   69.8030 C   0  0  0  0  0  0  0  0  0  0  0  0
   17.5650   11.8040   65.6610 C   0  0  0  0  0  0  0  0  0  0  0  0
   23.0540   17.7030   67.8540 C   0  0  0  0  0  0  0  0  0  0  0  0
   22.0330   19.9060   67.8040 C   0  0  0  0  0  0  0  0  0  0  0  0
   19.3480   13.8610   66.7650 C   0  0  3  0  0  0  0  0  0  0  0  0
   21.4820   19.0300   70.7160 C   0  0  0  0  0  0  0  0  0  0  0  0
   19.5480   16.7850   70.1640 C   0  0  0  0  0  0  0  0  0  0  0  0
   20.0140   14.4160   69.4560 C   0  0  3  0  0  0  0  0  0  0  0  0
  1  2  2  0  0  0  0
  1  3  1  0  0  0  0
  1 23  1  0  0  0  0
  2 10  1  0  0  0  0
  2 24  1  0  0  0  0
  3 20  2  0  0  0  0
  3 21  1  0  0  0  0
  4 18  2  0  0  0  0
  4 23  1  0  0  0  0
  5  8  1  0  0  0  0
  5 25  1  0  0  0  0
  6 17  2  0  0  0  0
  6 22  1  0  0  0  0
  7 18  1  0  0  0  0
  7 21  2  0  0  0  0
  8 12  2  0  0  0  0
  8 22  1  0  0  0  0
  9 10  1  0  0  0  0
  9 13  1  0  0  0  0
  9 25  1  0  0  0  0
 10 16  2  0  0  0  0
 11 24  1  0  0  0  0
 11 25  1  0  0  0  0
 12 15  1  0  0  0  0
 13 14  2  0  0  0  0
 13 22  1  0  0  0  0
 15 19  2  0  0  0  0
 16 20  1  0  0  0  0
 17 19  1  0  0  0  0
M  END
>  <Original_Directory>
4rrx_A_rec_4cox_imn_lig_tt_min_0_pocket10

>  <Original_Filename>
4rrx_A_rec_4cox_imn_lig_tt_min_0_pocket10_gen_sample_11.sdf

>  <Molecule_ID>
sample_11

>  <logS>
-4.8122702

$$$$