/tmp/tmp2flc7zj9
  MOE2022           3D

 24 28  0  0  1  0  0  0  0  0999 V2000
   -1.5850    5.1790    8.8700 C   0  0  0  0  0  0  0  0  0  0  0  0
   -4.1690    7.8060    5.9040 C   0  0  0  0  0  0  0  0  0  0  0  0
   -1.5340    2.0200   10.0070 C   0  0  3  0  0  0  0  0  0  0  0  0
   -2.9090    1.8970   10.6020 C   0  0  3  0  0  0  0  0  0  0  0  0
    1.3920    4.2940    9.2650 C   0  0  0  0  0  0  0  0  0  0  0  0
    0.6880    3.4530   10.3460 C   0  0  0  0  0  0  0  0  0  0  0  0
   -2.9290    8.0280    5.2980 C   0  0  0  0  0  0  0  0  0  0  0  0
   -0.7930    3.2570   10.1960 C   0  0  3  0  0  0  0  0  0  0  0  0
   -3.6120    1.0700    9.5180 C   0  0  0  0  0  0  0  0  0  0  0  0
    0.3500    8.4010    8.4950 C   0  0  0  0  0  0  0  0  0  0  0  0
   -0.5890    7.4010    8.2250 C   0  0  0  0  0  0  0  0  0  0  0  0
    1.5340    8.0820    9.1680 C   0  0  0  0  0  0  0  0  0  0  0  0
   -1.8330    7.7050    7.4410 C   0  0  0  0  0  0  0  0  0  0  0  0
   -1.6710    4.5110   10.2510 C   0  0  0  0  0  0  0  0  0  0  0  0
    1.8060    6.7630    9.5160 C   0  0  0  0  0  0  0  0  0  0  0  0
   -3.0830    7.7240    8.0610 C   0  0  0  0  0  0  0  0  0  0  0  0
   -4.2410    7.7240    7.2810 C   0  0  0  0  0  0  0  0  0  0  0  0
    0.9100    5.7480    9.1600 C   0  0  0  0  0  0  0  0  0  0  0  0
   -2.5750   -0.0530    9.5380 C   0  0  3  0  0  0  0  0  0  0  0  0
   -0.3910    6.1160    8.7850 C   0  0  0  0  0  0  0  0  0  0  0  0
   -2.6850    0.9160   11.7470 C   0  0  0  0  0  0  0  0  0  0  0  0
   -1.2440    0.6960    9.3500 C   0  0  0  0  0  0  0  0  0  0  0  0
   -1.7660    7.9900    6.0680 C   0  0  0  0  0  0  0  0  0  0  0  0
   -2.6240   -0.4270   11.0280 C   0  0  0  0  0  0  0  0  0  0  0  0
  1 14  1  0  0  0  0
  1 20  1  0  0  0  0
  2  7  1  0  0  0  0
  2 17  2  0  0  0  0
  3  4  1  0  0  0  0
  3  8  1  0  0  0  0
  3 22  1  0  0  0  0
  4  9  1  0  0  0  0
  4 21  1  0  0  0  0
  5  6  1  0  0  0  0
  5 18  1  0  0  0  0
  6  8  1  0  0  0  0
  7 23  2  0  0  0  0
  8 14  1  0  0  0  0
  9 19  1  0  0  0  0
 10 11  1  0  0  0  0
 10 12  2  0  0  0  0
 11 13  1  0  0  0  0
 11 20  2  0  0  0  0
 12 15  1  0  0  0  0
 13 16  2  0  0  0  0
 13 23  1  0  0  0  0
 15 18  2  0  0  0  0
 16 17  1  0  0  0  0
 18 20  1  0  0  0  0
 19 22  1  0  0  0  0
 19 24  1  0  0  0  0
 21 24  1  0  0  0  0
M  END
>  <Original_Directory>
4y5g_A_rec_5hct_61p_lig_tt_min_0_pocket10

>  <Original_Filename>
4y5g_A_rec_5hct_61p_lig_tt_min_0_pocket10_gen_sample_11.sdf

>  <Molecule_ID>
sample_11

>  <logS>
-9.6051798

$$$$