/tmp/tmpo8u9tyo1
  MOE2022           3D

 24 29  0  0  1  0  0  0  0  0999 V2000
   -3.0840    2.5510    9.0560 C   0  0  3  0  0  0  0  0  0  0  0  0
   -1.5740    4.3610    9.8800 N   0  0  0  0  0  0  0  0  0  0  0  0
   -3.4480    4.5890    5.5870 C   0  0  0  0  0  0  0  0  0  0  0  0
   -2.7180    1.7850   10.1870 O   0  0  0  0  0  0  0  0  0  0  0  0
    2.2700    6.2070   10.4140 C   0  0  0  0  0  0  0  0  0  0  0  0
   -1.8760    5.5480    7.0790 C   0  0  3  0  0  0  0  0  0  0  0  0
   -2.6900    3.5390    6.4220 C   0  0  3  0  0  0  0  0  0  0  0  0
   -2.7590    7.1790    5.4320 C   0  0  0  0  0  0  0  0  0  0  0  0
   -0.3770    5.0540    9.4970 C   0  0  0  0  0  0  0  0  0  0  0  0
   -2.4690    4.3350    7.6620 N   0  0  0  0  0  0  0  0  0  0  0  0
    2.0590    4.9350    9.9670 C   0  0  0  0  0  0  0  0  0  0  0  0
   -1.9170    3.5170    8.7240 C   0  0  3  0  0  0  0  0  0  0  0  0
   -2.7260    2.7350   11.2490 C   0  0  0  0  0  0  0  0  0  0  0  0
   -0.5020    6.3660    9.0110 C   0  0  0  0  0  0  0  0  0  0  0  0
   -1.2170    7.9170    7.1670 C   0  0  0  0  0  0  0  0  0  0  0  0
   -1.5950    6.7100    8.0400 C   0  0  3  0  0  0  0  0  0  0  0  0
    1.4290    7.2760   10.2780 C   0  0  0  0  0  0  0  0  0  0  0  0
   -2.5040    8.3140    6.4270 C   0  0  0  0  0  0  0  0  0  0  0  0
   -3.0180    1.6560    7.9110 O   0  0  0  0  0  0  0  0  0  0  0  0
   -3.1140    5.9310    6.2390 C   0  0  3  0  0  0  0  0  0  0  0  0
    0.8570    4.4030    9.5290 C   0  0  0  0  0  0  0  0  0  0  0  0
   -3.6110    2.3660    6.8090 C   0  0  0  0  0  0  0  0  0  0  0  0
   -1.4030    3.4840   11.0560 C   0  0  0  0  0  0  0  0  0  0  0  0
    0.2590    7.3830    9.5620 C   0  0  0  0  0  0  0  0  0  0  0  0
  1  4  1  0  0  0  0
  1 12  1  0  0  0  0
  1 19  1  0  0  0  0
  2  9  1  0  0  0  0
  2 12  1  0  0  0  0
  2 23  1  0  0  0  0
  3  7  1  0  0  0  0
  3 20  1  0  0  0  0
  4 13  1  0  0  0  0
  5 11  2  0  0  0  0
  5 17  1  0  0  0  0
  6 10  1  0  0  0  0
  6 16  1  0  0  0  0
  6 20  1  0  0  0  0
  7 10  1  0  0  0  0
  7 22  1  0  0  0  0
  8 18  1  0  0  0  0
  8 20  1  0  0  0  0
  9 14  1  0  0  0  0
  9 21  2  0  0  0  0
 10 12  1  0  0  0  0
 11 21  1  0  0  0  0
 13 23  1  0  0  0  0
 14 16  1  0  0  0  0
 14 24  2  0  0  0  0
 15 16  1  0  0  0  0
 15 18  1  0  0  0  0
 17 24  1  0  0  0  0
 19 22  1  0  0  0  0
M  END
>  <Original_Directory>
4y5g_A_rec_5hct_61p_lig_tt_min_0_pocket10

>  <Original_Filename>
4y5g_A_rec_5hct_61p_lig_tt_min_0_pocket10_gen_sample_5.sdf

>  <Molecule_ID>
sample_5

>  <logS>
-3.06741

$$$$