/tmp/tmplamsx3vs
  MOE2022           3D

 17 18  0  0  1  0  0  0  0  0999 V2000
   32.8230   15.9820   65.3350 O   0  0  0  0  0  0  0  0  0  0  0  0
   32.8540   11.8460   60.8880 C   0  0  0  0  0  0  0  0  0  0  0  0
   30.2060   16.5160   63.8880 O   0  0  0  0  0  0  0  0  0  0  0  0
   32.4500   17.1420   63.3030 C   0  0  3  0  0  0  0  0  0  0  0  0
   31.8920   14.4290   59.3050 C   0  0  0  0  0  0  0  0  0  0  0  0
   32.5120   12.0230   59.5460 C   0  0  0  0  0  0  0  0  0  0  0  0
   32.0850   14.8610   60.6330 C   0  0  0  0  0  0  0  0  0  0  0  0
   32.9740   14.2270   61.5590 C   0  0  0  0  0  0  0  0  0  0  0  0
   33.0070   12.8560   61.8270 C   0  0  0  0  0  0  0  0  0  0  0  0
   32.7260   16.2400   62.1840 C   0  0  0  0  0  0  0  0  0  0  0  0
   33.5760   15.2370   62.2230 N   0  0  0  0  0  0  0  0  0  0  0  0
   31.7910   16.0710   61.1780 O   0  0  0  0  0  0  0  0  0  0  0  0
   33.2810   16.7790   64.5070 C   0  0  0  0  0  0  0  0  0  0  0  0
   32.2430   13.1790   58.8440 C   0  0  0  0  0  0  0  0  0  0  0  0
   34.4830   17.3720   64.6480 N   0  0  0  0  0  0  0  0  0  0  0  0
   30.9320   17.3750   63.3840 C   0  0  0  0  0  0  0  0  0  0  0  0
   30.4720   18.3790   62.7980 O   0  0  0  0  0  0  0  0  0  0  0  0
  1 13  2  0  0  0  0
  2  6  2  0  0  0  0
  2  9  1  0  0  0  0
  3 16  1  0  0  0  0
  4 10  1  0  0  0  0
  4 13  1  0  0  0  0
  4 16  1  0  0  0  0
  5  7  1  0  0  0  0
  5 14  2  0  0  0  0
  6 14  1  0  0  0  0
  7  8  2  0  0  0  0
  7 12  1  0  0  0  0
  8  9  1  0  0  0  0
  8 11  1  0  0  0  0
 10 11  2  0  0  0  0
 10 12  1  0  0  0  0
 13 15  1  0  0  0  0
 16 17  2  0  0  0  0
M  END
>  <Original_Directory>
1zab_B_rec_1zab_urd_lig_tt_docked_0_pocket10

>  <Original_Filename>
1zab_B_rec_1zab_urd_lig_tt_docked_0_pocket10_gen_sample_9.sdf

>  <Molecule_ID>
sample_9

>  <logS>
-1.69013

$$$$