/tmp/tmpt8m_h6ma
  MOE2022           3D

 26 29  0  0  1  0  0  0  0  0999 V2000
  -26.4940  -17.6990   15.9740 C   0  0  3  0  0  0  0  0  0  0  0  0
  -24.5330  -15.2550   15.7430 O   0  0  0  0  0  0  0  0  0  0  0  0
  -25.4670  -22.5820   16.8840 C   0  0  0  0  0  0  0  0  0  0  0  0
  -25.2430  -15.9200   14.7120 C   0  0  3  0  0  0  0  0  0  0  0  0
  -24.2340  -17.4200   11.5420 N   0  0  0  0  0  0  0  0  0  0  0  0
  -24.5630  -19.2140    9.9300 C   0  0  0  0  0  0  0  0  0  0  0  0
  -25.3560  -20.5090   15.6940 C   0  0  0  0  0  0  0  0  0  0  0  0
  -28.6070  -18.7380   16.5610 C   0  0  3  0  0  0  0  0  0  0  0  0
  -26.2620  -18.2910    8.7770 C   0  0  0  0  0  0  0  0  0  0  0  0
  -27.4590  -21.3300   16.4890 C   0  0  0  0  0  0  0  0  0  0  0  0
  -24.8230  -23.2570   17.8650 O   0  0  0  0  0  0  0  0  0  0  0  0
  -24.8480  -17.9700   10.4320 C   0  0  0  0  0  0  0  0  0  0  0  0
  -25.3520  -17.4100   15.0240 C   0  0  3  0  0  0  0  0  0  0  0  0
  -27.4710  -16.5770   16.2680 C   0  0  0  0  0  0  0  0  0  0  0  0
  -25.3280  -18.1400   13.6850 C   0  0  0  0  0  0  0  0  0  0  0  0
  -25.4830  -19.4110    8.9030 C   0  0  3  0  0  0  0  0  0  0  0  0
  -24.5880  -15.7810   13.3400 C   0  0  0  0  0  0  0  0  0  0  0  0
  -25.7560  -17.3480    9.6350 N   0  0  0  0  0  0  0  0  0  0  0  0
  -24.6840  -17.1520   12.7520 C   0  0  3  0  0  0  0  0  0  0  0  0
  -27.3270  -18.9450   15.7470 C   0  0  3  0  0  0  0  0  0  0  0  0
  -26.6960  -20.2780   16.0010 C   0  0  0  0  0  0  0  0  0  0  0  0
  -24.7380  -21.6790   16.1140 C   0  0  0  0  0  0  0  0  0  0  0  0
  -28.7780  -17.2300   16.6810 C   0  0  0  0  0  0  0  0  0  0  0  0
  -25.6370  -20.5270    8.1700 O   0  0  0  0  0  0  0  0  0  0  0  0
  -26.8500  -22.5070   16.9040 C   0  0  0  0  0  0  0  0  0  0  0  0
  -29.6730  -19.3110   15.7960 O   0  0  0  0  0  0  0  0  0  0  0  0
  1 13  1  0  0  0  0
  1 14  1  0  0  0  0
  1 20  1  0  0  0  0
  2  4  1  0  0  0  0
  3 11  1  0  0  0  0
  3 22  2  0  0  0  0
  3 25  1  0  0  0  0
  4 13  1  0  0  0  0
  4 17  1  0  0  0  0
  5 12  1  0  0  0  0
  5 19  1  0  0  0  0
  6 12  1  0  0  0  0
  6 16  1  0  0  0  0
  7 21  2  0  0  0  0
  7 22  1  0  0  0  0
  8 20  1  0  0  0  0
  8 23  1  0  0  0  0
  8 26  1  0  0  0  0
  9 16  1  0  0  0  0
  9 18  1  0  0  0  0
 10 21  1  0  0  0  0
 10 25  2  0  0  0  0
 12 18  2  0  0  0  0
 13 15  1  0  0  0  0
 14 23  1  0  0  0  0
 15 19  1  0  0  0  0
 16 24  1  0  0  0  0
 17 19  1  0  0  0  0
 20 21  1  0  0  0  0
M  END
>  <Original_Directory>
5jfr_A_rec_5lyx_7bf_lig_tt_min_0_pocket10

>  <Original_Filename>
5jfr_A_rec_5lyx_7bf_lig_tt_min_0_pocket10_gen_sample_3.sdf

>  <Molecule_ID>
sample_3

>  <logS>
-1.88042

$$$$