/tmp/tmpem_l7f_n
  MOE2022           3D

 27 33  0  0  1  0  0  0  0  0999 V2000
  -36.4380  -20.8020  -11.9830 C   0  0  0  0  0  0  0  0  0  0  0  0
  -38.3590  -12.8760  -12.6710 C   0  0  0  0  0  0  0  0  0  0  0  0
  -33.3210  -16.2180   -6.9880 C   0  0  0  0  0  0  0  0  0  0  0  0
  -36.8700  -12.6070  -12.7130 C   0  0  0  0  0  0  0  0  0  0  0  0
  -37.0410  -16.2460  -13.4640 N   0  0  0  0  0  0  0  0  0  0  0  0
  -35.3870  -18.9370  -10.7170 C   0  0  3  0  0  0  0  0  0  0  0  0
  -33.1810  -15.5940   -8.2330 C   0  0  0  0  0  0  0  0  0  0  0  0
  -33.3240  -16.2120   -9.4240 N   0  0  0  0  0  0  0  0  0  0  0  0
  -34.2510  -18.5220   -7.4650 C   0  0  0  0  0  0  0  0  0  0  0  0
  -36.2540  -13.7880  -13.4610 C   0  0  0  0  0  0  0  0  0  0  0  0
  -34.7980  -14.0130  -13.1010 C   0  0  0  0  0  0  0  0  0  0  0  0
  -36.0580  -17.1360  -12.8520 C   0  0  3  0  0  0  0  0  0  0  0  0
  -34.6700  -17.6240  -10.9920 C   0  0  3  0  0  0  0  0  0  0  0  0
  -37.1240  -14.9220  -12.9650 C   0  0  3  0  0  0  0  0  0  0  0  0
  -34.5450  -19.5770   -9.7310 N   0  0  0  0  0  0  0  0  0  0  0  0
  -37.7310  -20.9410  -12.7310 C   0  0  3  0  0  0  0  0  0  0  0  0
  -35.7280  -19.4590  -12.1050 C   0  0  3  0  0  0  0  0  0  0  0  0
  -37.5140  -20.4110  -14.1200 C   0  0  0  0  0  0  0  0  0  0  0  0
  -35.7870  -16.6790  -11.4100 C   0  0  0  0  0  0  0  0  0  0  0  0
  -38.5210  -14.3810  -12.7110 C   0  0  0  0  0  0  0  0  0  0  0  0
  -36.7130  -18.5040  -12.7720 C   0  0  3  0  0  0  0  0  0  0  0  0
  -33.6580  -17.5340   -6.6830 C   0  0  0  0  0  0  0  0  0  0  0  0
  -36.9490  -18.9920  -14.2020 C   0  0  0  0  0  0  0  0  0  0  0  0
  -34.0060  -17.3570   -9.7010 C   0  0  0  0  0  0  0  0  0  0  0  0
  -36.5550  -21.3750  -13.4020 C   0  0  3  0  0  0  0  0  0  0  0  0
  -34.1830  -18.5520   -8.9080 C   0  0  0  0  0  0  0  0  0  0  0  0
  -36.3840  -13.6090  -14.9680 C   0  0  0  0  0  0  0  0  0  0  0  0
  1 16  1  0  0  0  0
  1 17  1  0  0  0  0
  1 25  1  0  0  0  0
  2  4  1  0  0  0  0
  2 20  1  0  0  0  0
  3  7  2  0  0  0  0
  3 22  1  0  0  0  0
  4 10  1  0  0  0  0
  5 12  1  0  0  0  0
  5 14  1  0  0  0  0
  6 13  1  0  0  0  0
  6 15  1  0  0  0  0
  6 17  1  0  0  0  0
  7  8  1  0  0  0  0
  8 24  2  0  0  0  0
  9 22  1  0  0  0  0
  9 26  2  0  0  0  0
 10 11  1  0  0  0  0
 10 14  1  0  0  0  0
 10 27  1  0  0  0  0
 12 19  1  0  0  0  0
 12 21  1  0  0  0  0
 13 19  1  0  0  0  0
 13 24  1  0  0  0  0
 14 20  1  0  0  0  0
 15 26  1  0  0  0  0
 16 18  1  0  0  0  0
 16 25  1  0  0  0  0
 17 21  1  0  0  0  0
 18 23  1  0  0  0  0
 18 25  1  0  0  0  0
 21 23  1  0  0  0  0
 24 26  1  0  0  0  0
M  END
>  <Original_Directory>
4jt3_A_rec_5ei6_5oq_lig_tt_docked_1_pocket10

>  <Original_Filename>
4jt3_A_rec_5ei6_5oq_lig_tt_docked_1_pocket10_gen_sample_18.sdf

>  <Molecule_ID>
sample_18

>  <logS>
-4.0872502

$$$$