/tmp/tmpnn04uknl
  MOE2022           3D

  9 10  0  0  0  0  0  0  0  0999 V2000
  -54.9170  -52.5950  -29.9210 C   0  0  0  0  0  0  0  0  0  0  0  0
  -56.7030  -54.0340  -30.6060 C   0  0  0  0  0  0  0  0  0  0  0  0
  -57.3340  -53.0730  -32.7200 C   0  0  0  0  0  0  0  0  0  0  0  0
  -57.5830  -55.0700  -30.7950 C   0  0  0  0  0  0  0  0  0  0  0  0
  -56.6040  -53.0130  -31.5480 C   0  0  0  0  0  0  0  0  0  0  0  0
  -58.3760  -55.0940  -31.9360 C   0  0  0  0  0  0  0  0  0  0  0  0
  -55.7350  -53.7960  -29.4800 C   0  0  0  0  0  0  0  0  0  0  0  0
  -55.7360  -51.9110  -31.0140 C   0  0  0  0  0  0  0  0  0  0  0  0
  -58.2040  -54.1330  -32.9220 C   0  0  0  0  0  0  0  0  0  0  0  0
  1  7  1  0  0  0  0
  1  8  1  0  0  0  0
  2  4  1  0  0  0  0
  2  5  2  0  0  0  0
  2  7  1  0  0  0  0
  3  5  1  0  0  0  0
  3  9  2  0  0  0  0
  4  6  2  0  0  0  0
  5  8  1  0  0  0  0
  6  9  1  0  0  0  0
M  END
>  <Original_Directory>
3doz_A_rec_3dp1_ben_lig_it2_tt_docked_3_pocket10

>  <Original_Filename>
3doz_A_rec_3dp1_ben_lig_it2_tt_docked_3_pocket10_gen_sample_1.sdf

>  <Molecule_ID>
sample_1

>  <logS>
-2.7458999

$$$$