
  MOE2022           3D

 28 32  0  0  1  0  0  0  0  0999 V2000
  -12.8160  -28.0330    1.0740 C   0  0  0  0  0  0  0  0  0  0  0  0
  -11.1010  -24.7010    1.0230 C   0  0  3  0  0  0  0  0  0  0  0  0
   -9.3720  -19.6930    3.3850 C   0  0  0  0  0  0  0  0  0  0  0  0
  -10.8620  -23.2450    1.3460 C   0  0  3  0  0  0  0  0  0  0  0  0
  -10.0350  -28.1880    1.0200 N   0  0  0  0  0  0  0  0  0  0  0  0
  -11.4250  -20.7190    4.2720 C   0  0  0  0  0  0  0  0  0  0  0  0
  -12.1920  -18.0960    5.0820 C   0  0  0  0  0  0  0  0  0  0  0  0
  -12.1940  -29.2470    1.3130 C   0  0  0  0  0  0  0  0  0  0  0  0
  -10.3110  -19.7060    4.6010 C   0  0  3  0  0  0  0  0  0  0  0  0
  -11.0300  -21.2640    2.8870 C   0  0  3  0  0  0  0  0  0  0  0  0
  -12.3910  -25.4550    1.3220 C   0  0  0  0  0  0  0  0  0  0  0  0
  -10.7390  -29.3110    1.3940 C   0  0  0  0  0  0  0  0  0  0  0  0
   -9.4280  -22.8050    1.0290 C   0  0  0  0  0  0  0  0  0  0  0  0
  -10.6620  -27.0070    0.4200 C   0  0  3  0  0  0  0  0  0  0  0  0
  -11.3370  -22.7740    2.7320 C   0  0  0  0  0  0  0  0  0  0  0  0
  -10.1540  -30.2170    2.0330 O   0  0  0  0  0  0  0  0  0  0  0  0
  -10.1100  -16.0560    5.9580 C   0  0  0  0  0  0  0  0  0  0  0  0
   -9.5020  -21.1650    2.9500 C   0  0  3  0  0  0  0  0  0  0  0  0
  -12.5770  -15.6940    5.9080 C   0  0  0  0  0  0  0  0  0  0  0  0
   -9.9790  -25.6910    0.8100 C   0  0  0  0  0  0  0  0  0  0  0  0
  -12.0410  -26.8740    1.0030 C   0  0  3  0  0  0  0  0  0  0  0  0
   -8.0580  -17.2420    7.2950 O   0  0  0  0  0  0  0  0  0  0  0  0
   -8.4560  -17.8810    6.0750 C   0  0  0  0  0  0  0  0  0  0  0  0
  -11.2440  -15.2450    6.0460 C   0  0  0  0  0  0  0  0  0  0  0  0
  -10.8040  -18.3490    5.0950 C   0  0  0  0  0  0  0  0  0  0  0  0
   -9.8600  -17.4120    5.7080 C   0  0  0  0  0  0  0  0  0  0  0  0
   -9.1000  -21.3700    1.4710 C   0  0  0  0  0  0  0  0  0  0  0  0
  -12.9430  -17.0020    5.5400 C   0  0  0  0  0  0  0  0  0  0  0  0
  1  8  2  0  0  0  0
  1 21  1  0  0  0  0
  2  4  1  0  0  0  0
  2 11  1  0  0  0  0
  2 20  1  0  0  0  0
  3  9  1  0  0  0  0
  3 18  1  0  0  0  0
  4 13  1  0  0  0  0
  4 15  1  0  0  0  0
  5 12  1  0  0  0  0
  5 14  1  0  0  0  0
  6  9  1  0  0  0  0
  6 10  1  0  0  0  0
  7 25  2  0  0  0  0
  7 28  1  0  0  0  0
  8 12  1  0  0  0  0
  9 25  1  0  0  0  0
 10 15  1  0  0  0  0
 10 18  1  0  0  0  0
 11 21  1  0  0  0  0
 12 16  2  0  0  0  0
 13 27  1  0  0  0  0
 14 20  1  0  0  0  0
 14 21  1  0  0  0  0
 17 24  1  0  0  0  0
 17 26  2  0  0  0  0
 18 27  1  0  0  0  0
 19 24  2  0  0  0  0
 19 28  1  0  0  0  0
 22 23  1  0  0  0  0
 23 26  1  0  0  0  0
 25 26  1  0  0  0  0
M  END
>  <Original_Directory>
3wv1_A_rec_5uwk_8om_lig_tt_docked_1_pocket10

>  <Original_Filename>
3wv1_A_rec_5uwk_8om_lig_tt_docked_1_pocket10_gen_sample_9.sdf

>  <Molecule_ID>
sample_9

>  <logS>
-6.5943198

$$$$