/tmp/tmp85gu9c7p
  MOE2022           3D

 30 33  0  0  1  0  0  0  0  0999 V2000
    6.8090    6.4930   35.4730 C   0  0  0  0  0  0  0  0  0  0  0  0
    9.8280    7.0480   35.7560 C   0  0  0  0  0  0  0  0  0  0  0  0
   11.5780    6.7130   30.3220 C   0  0  0  0  0  0  0  0  0  0  0  0
    5.5290    1.3700   36.6090 C   0  0  0  0  0  0  0  0  0  0  0  0
    2.3950   -0.3200   34.1310 C   0  0  0  0  0  0  0  0  0  0  0  0
    7.4130    4.0360   35.6400 C   0  0  0  0  0  0  0  0  0  0  0  0
   13.0330   10.0040   32.4850 O   0  0  0  0  0  0  0  0  0  0  0  0
    7.9090    5.4530   35.3690 C   0  0  3  0  0  0  0  0  0  0  0  0
   12.5070    8.9290   31.7360 C   0  0  3  0  0  0  0  0  0  0  0  0
    4.2620    2.8000   35.2750 C   0  0  0  0  0  0  0  0  0  0  0  0
    9.1320    5.7750   36.2320 C   0  0  0  0  0  0  0  0  0  0  0  0
   12.6380    7.6920   29.7900 C   0  0  0  0  0  0  0  0  0  0  0  0
   11.0250    8.0690   33.7590 C   0  0  0  0  0  0  0  0  0  0  0  0
    3.7150   -0.8110   32.2040 C   0  0  0  0  0  0  0  0  0  0  0  0
    3.0270    0.9530   33.9960 C   0  0  0  0  0  0  0  0  0  0  0  0
    6.2300    3.8210   36.5540 C   0  0  0  0  0  0  0  0  0  0  0  0
    4.7000   -1.4690   31.8180 O   0  0  0  0  0  0  0  0  0  0  0  0
    2.8590   -1.2950   33.2410 C   0  0  0  0  0  0  0  0  0  0  0  0
   13.4850    7.9680   31.0560 C   0  0  3  0  0  0  0  0  0  0  0  0
    3.0900    1.4300   32.6700 C   0  0  0  0  0  0  0  0  0  0  0  0
   10.1730    6.9260   34.2780 C   0  0  0  0  0  0  0  0  0  0  0  0
    3.4470    0.4810   31.6990 C   0  0  0  0  0  0  0  0  0  0  0  0
    5.9740    4.5110   37.5250 O   0  0  0  0  0  0  0  0  0  0  0  0
   11.4160    8.9580   34.4820 O   0  0  0  0  0  0  0  0  0  0  0  0
   11.8610    6.6380   31.8250 C   0  0  3  0  0  0  0  0  0  0  0  0
    3.8780    1.4770   35.0390 C   0  0  0  0  0  0  0  0  0  0  0  0
   11.4310    8.0330   32.3210 C   0  0  3  0  0  0  0  0  0  0  0  0
    4.5690    0.6220   35.9460 C   0  0  0  0  0  0  0  0  0  0  0  0
    5.3570    2.6940   36.1810 C   0  0  3  0  0  0  0  0  0  0  0  0
   13.3780    6.7050   31.9010 C   0  0  0  0  0  0  0  0  0  0  0  0
  1  8  1  0  0  0  0
  2 11  1  0  0  0  0
  2 21  1  0  0  0  0
  3 12  1  0  0  0  0
  3 25  1  0  0  0  0
  4 28  2  0  0  0  0
  4 29  1  0  0  0  0
  5 15  1  0  0  0  0
  5 18  1  0  0  0  0
  6  8  1  0  0  0  0
  6 16  1  0  0  0  0
  7  9  1  0  0  0  0
  8 11  1  0  0  0  0
  9 19  1  0  0  0  0
  9 27  1  0  0  0  0
 10 26  2  0  0  0  0
 10 29  1  0  0  0  0
 12 19  1  0  0  0  0
 13 21  1  0  0  0  0
 13 24  2  0  0  0  0
 13 27  1  0  0  0  0
 14 17  2  0  0  0  0
 14 18  1  0  0  0  0
 14 22  1  0  0  0  0
 15 20  1  0  0  0  0
 15 26  1  0  0  0  0
 16 23  2  0  0  0  0
 16 29  1  0  0  0  0
 19 30  1  0  0  0  0
 20 22  1  0  0  0  0
 25 27  1  0  0  0  0
 25 30  1  0  0  0  0
 26 28  1  0  0  0  0
M  END
>  <Original_Directory>
2zlc_A_rec_3w5r_loa_lig_tt_docked_0_pocket10

>  <Original_Filename>
2zlc_A_rec_3w5r_loa_lig_tt_docked_0_pocket10_gen_sample_12.sdf

>  <Molecule_ID>
sample_12

>  <logS>
-4.0181499

$$$$