/tmp/tmpdd4bu4jx
  MOE2022           3D

 20 22  0  0  1  0  0  0  0  0999 V2000
    7.1420   42.7710   17.7960 C   0  0  0  0  0  0  0  0  0  0  0  0
    9.0010   46.0840   20.3890 C   0  0  0  0  0  0  0  0  0  0  0  0
    8.2650   46.1830   17.7640 O   0  0  0  0  0  0  0  0  0  0  0  0
    9.6330   46.0010   21.6130 C   0  0  0  0  0  0  0  0  0  0  0  0
    7.6450   42.6690   20.1840 C   0  0  0  0  0  0  0  0  0  0  0  0
   11.8610   43.3070   22.3270 O   0  0  0  0  0  0  0  0  0  0  0  0
   11.5220   46.9840   22.7640 C   0  0  0  0  0  0  0  0  0  0  0  0
    9.3940   43.5270   21.5250 N   0  0  0  0  0  0  0  0  0  0  0  0
    9.4530   48.1390   22.6170 O   0  0  0  0  0  0  0  0  0  0  0  0
    8.5260   43.6940   20.4520 C   0  0  0  0  0  0  0  0  0  0  0  0
    8.2270   44.9580   18.3640 C   0  0  0  0  0  0  0  0  0  0  0  0
   10.3010   47.1090   22.1970 C   0  0  3  0  0  0  0  0  0  0  0  0
    8.9900   44.7370   23.4700 O   0  0  0  0  0  0  0  0  0  0  0  0
    7.8530   43.9140   17.5470 C   0  0  0  0  0  0  0  0  0  0  0  0
    7.0080   42.2320   19.0590 C   0  0  0  0  0  0  0  0  0  0  0  0
    9.8170   44.6810   22.3120 C   0  0  2  0  0  0  0  0  0  0  0  0
    8.5630   44.8890   19.7290 C   0  0  0  0  0  0  0  0  0  0  0  0
   11.2470   44.4750   22.7930 C   0  0  3  0  0  0  0  0  0  0  0  0
   13.1370   45.5580   23.8080 O   0  0  0  0  0  0  0  0  0  0  0  0
   12.2070   45.6410   22.7490 C   0  0  3  0  0  0  0  0  0  0  0  0
  1 14  2  0  0  0  0
  1 15  1  0  0  0  0
  2  4  2  0  0  0  0
  2 17  1  0  0  0  0
  3 11  1  0  0  0  0
  4 12  1  0  0  0  0
  4 16  1  0  0  0  0
  5 10  2  0  0  0  0
  5 15  1  0  0  0  0
  6 18  1  0  0  0  0
  7 12  1  0  0  0  0
  7 20  1  0  0  0  0
  8 10  1  0  0  0  0
  8 16  1  0  0  0  0
  9 12  1  0  0  0  0
 10 17  1  0  0  0  0
 11 14  1  0  0  0  0
 11 17  2  0  0  0  0
 13 16  1  0  0  0  0
 16 18  1  0  0  0  0
 18 20  1  0  0  0  0
 19 20  1  0  0  0  0
M  END
>  <Original_Directory>
1q1m_A_rec_1bzj_pic_lig_tt_min_0_pocket10

>  <Original_Filename>
1q1m_A_rec_1bzj_pic_lig_tt_min_0_pocket10_gen_sample_1.sdf

>  <Molecule_ID>
sample_1

>  <logS>
-0.91557997

$$$$