
  MOE2022           3D

 33 38  0  0  1  0  0  0  0  0999 V2000
  -11.5470  -24.2230   32.5820 N   0  0  0  0  0  0  0  0  0  0  0  0
  -11.0880  -26.6590   44.3950 C   0  0  0  0  0  0  0  0  0  0  0  0
  -11.3490  -25.6600   43.2590 C   0  0  0  0  0  0  0  0  0  0  0  0
  -11.8350  -20.3120   30.5350 C   0  0  3  0  0  0  0  0  0  0  0  0
   -9.9280  -24.8590   36.8350 C   0  0  0  0  0  0  0  0  0  0  0  0
  -13.6770  -19.0500   31.4970 C   0  0  0  0  0  0  0  0  0  0  0  0
  -11.4960  -25.1070   38.6950 C   0  0  0  0  0  0  0  0  0  0  0  0
  -11.9640  -26.3300   33.2020 O   0  0  0  0  0  0  0  0  0  0  0  0
  -11.3490  -24.7780   34.9600 C   0  0  3  0  0  0  0  0  0  0  0  0
  -10.8460  -26.2310   41.9580 C   0  0  0  0  0  0  0  0  0  0  0  0
  -14.0900  -25.2750   35.0410 C   0  0  0  0  0  0  0  0  0  0  0  0
   -8.8770  -24.6030   37.7130 C   0  0  0  0  0  0  0  0  0  0  0  0
  -13.5840  -24.3010   36.1060 C   0  0  0  0  0  0  0  0  0  0  0  0
  -12.1570  -24.6930   36.1980 C   0  0  3  0  0  0  0  0  0  0  0  0
  -12.5330  -20.8720   32.9020 C   0  0  0  0  0  0  0  0  0  0  0  0
  -10.4390  -25.8530   40.8380 C   0  0  0  0  0  0  0  0  0  0  0  0
  -12.8530  -25.4780   43.1820 C   0  0  0  0  0  0  0  0  0  0  0  0
  -12.0710  -25.0290   33.6090 C   0  0  1  0  0  0  0  0  0  0  0  0
  -10.3610  -25.1780   39.5380 C   0  0  0  0  0  0  0  0  0  0  0  0
  -13.4750  -24.7880   33.8420 O   0  0  0  0  0  0  0  0  0  0  0  0
  -11.3120  -23.8820   29.9480 O   0  0  0  0  0  0  0  0  0  0  0  0
  -11.4580  -22.9840   32.0910 C   0  0  3  0  0  0  0  0  0  0  0  0
  -11.2470  -24.8410   37.3330 C   0  0  0  0  0  0  0  0  0  0  0  0
  -11.4140  -22.8510   30.6190 C   0  0  0  0  0  0  0  0  0  0  0  0
  -13.4700  -26.1810   44.3800 C   0  0  0  0  0  0  0  0  0  0  0  0
   -9.9110  -25.0350   35.3350 C   0  0  0  0  0  0  0  0  0  0  0  0
  -11.4720  -21.8370   32.8980 C   0  0  0  0  0  0  0  0  0  0  0  0
  -12.4480  -27.1970   44.8320 C   0  0  0  0  0  0  0  0  0  0  0  0
  -12.4290  -19.4140   29.4420 C   0  0  0  0  0  0  0  0  0  0  0  0
  -11.5080  -21.6410   29.9990 N   0  0  0  0  0  0  0  0  0  0  0  0
   -9.1260  -24.6400   39.0950 C   0  0  0  0  0  0  0  0  0  0  0  0
  -13.0130  -20.4290   31.5140 C   0  0  3  0  0  0  0  0  0  0  0  0
  -13.2270  -18.3600   30.2200 C   0  0  0  0  0  0  0  0  0  0  0  0
  1 18  1  0  0  0  0
  1 22  1  0  0  0  0
  2  3  1  0  0  0  0
  2 28  1  0  0  0  0
  3 10  1  0  0  0  0
  3 17  1  0  0  0  0
  4 29  1  0  0  0  0
  4 30  1  0  0  0  0
  4 32  1  0  0  0  0
  5 12  2  0  0  0  0
  5 23  1  0  0  0  0
  5 26  1  0  0  0  0
  6 32  1  0  0  0  0
  6 33  1  0  0  0  0
  7 19  1  0  0  0  0
  7 23  2  0  0  0  0
  8 18  1  0  0  0  0
  9 14  1  0  0  0  0
  9 18  1  0  0  0  0
  9 26  1  0  0  0  0
 10 16  2  0  0  0  0
 11 13  1  0  0  0  0
 11 20  1  0  0  0  0
 12 31  1  0  0  0  0
 13 14  1  0  0  0  0
 14 23  1  0  0  0  0
 15 27  1  0  0  0  0
 15 32  1  0  0  0  0
 16 19  2  0  0  0  0
 17 25  1  0  0  0  0
 18 20  1  0  0  0  0
 19 31  1  0  0  0  0
 21 24  2  0  0  0  0
 22 24  1  0  0  0  0
 22 27  1  0  0  0  0
 24 30  1  0  0  0  0
 25 28  1  0  0  0  0
 29 33  1  0  0  0  0
M  END
>  <Original_Directory>
3h3f_B_rec_9ldt_nad_lig_tt_docked_3_pocket10

>  <Original_Filename>
3h3f_B_rec_9ldt_nad_lig_tt_docked_3_pocket10_gen_sample_7.sdf

>  <Molecule_ID>
sample_7

>  <logS>
-5.5496001

$$$$