/tmp/tmpmky27cmg
  MOE2022           3D

 26 30  0  0  1  0  0  0  0  0999 V2000
  -30.8040  -27.9210  -71.1500 C   0  0  0  0  0  0  0  0  0  0  0  0
  -27.3430  -28.4340  -74.8390 C   0  0  3  0  0  0  0  0  0  0  0  0
  -30.3940  -29.0510  -72.1110 C   0  0  0  0  0  0  0  0  0  0  0  0
  -29.2380  -26.2960  -72.1370 C   0  0  0  0  0  0  0  0  0  0  0  0
  -25.3330  -26.7240  -74.6130 O   0  0  0  0  0  0  0  0  0  0  0  0
  -27.6860  -29.7260  -74.2430 C   0  0  0  0  0  0  0  0  0  0  0  0
  -29.5240  -27.1210  -70.8630 C   0  0  3  0  0  0  0  0  0  0  0  0
  -28.5900  -33.1070  -75.0090 C   0  0  0  0  0  0  0  0  0  0  0  0
  -27.9560  -34.6200  -72.5070 C   0  0  0  0  0  0  0  0  0  0  0  0
  -27.8770  -30.9320  -72.1790 C   0  0  0  0  0  0  0  0  0  0  0  0
  -27.6220  -30.9170  -74.9560 C   0  0  0  0  0  0  0  0  0  0  0  0
  -27.8840  -32.1350  -72.8920 C   0  0  0  0  0  0  0  0  0  0  0  0
  -29.0230  -27.4200  -73.1570 C   0  0  3  0  0  0  0  0  0  0  0  0
  -28.3910  -35.1860  -73.6930 C   0  0  0  0  0  0  0  0  0  0  0  0
  -25.3410  -28.2810  -76.4630 O   0  0  0  0  0  0  0  0  0  0  0  0
  -28.4330  -28.1980  -70.9510 C   0  0  0  0  0  0  0  0  0  0  0  0
  -25.5810  -28.1370  -75.0040 P   0  0  0  0  0  0  0  0  0  0  0  0
  -28.0870  -29.7690  -72.8990 C   0  0  0  0  0  0  0  0  0  0  0  0
  -28.4830  -36.5400  -73.7630 O   0  0  0  0  0  0  0  0  0  0  0  0
  -24.8890  -29.1750  -74.2030 O   0  0  0  0  0  0  0  0  0  0  0  0
  -27.8160  -33.3200  -72.1950 C   0  0  0  0  0  0  0  0  0  0  0  0
  -28.9200  -28.6860  -72.3120 C   0  0  1  0  0  0  0  0  0  0  0  0
  -28.7640  -34.4290  -74.7800 C   0  0  0  0  0  0  0  0  0  0  0  0
  -28.0000  -32.0860  -74.2890 C   0  0  3  0  0  0  0  0  0  0  0  0
  -28.7640  -26.6420  -75.4220 N   0  0  0  0  0  0  0  0  0  0  0  0
  -28.0640  -27.2090  -74.3100 C   0  0  3  0  0  0  0  0  0  0  0  0
  1  3  1  0  0  0  0
  1  7  1  0  0  0  0
  2  6  1  0  0  0  0
  2 17  1  0  0  0  0
  2 26  1  0  0  0  0
  3 22  1  0  0  0  0
  4  7  1  0  0  0  0
  4 13  1  0  0  0  0
  5 17  1  0  0  0  0
  6 11  2  0  0  0  0
  6 18  1  0  0  0  0
  7 16  1  0  0  0  0
  8 23  2  0  0  0  0
  8 24  1  0  0  0  0
  9 14  2  0  0  0  0
  9 21  1  0  0  0  0
 10 12  1  0  0  0  0
 10 18  2  0  0  0  0
 11 24  1  0  0  0  0
 12 21  2  0  0  0  0
 12 24  1  0  0  0  0
 13 22  1  0  0  0  0
 13 26  1  0  0  0  0
 14 19  1  0  0  0  0
 14 23  1  0  0  0  0
 15 17  2  0  0  0  0
 16 22  1  0  0  0  0
 17 20  1  0  0  0  0
 18 22  1  0  0  0  0
 25 26  1  0  0  0  0
M  END
>  <Original_Directory>
4cby_A_rec_4cbt_9f4_lig_tt_docked_1_pocket10

>  <Original_Filename>
4cby_A_rec_4cbt_9f4_lig_tt_docked_1_pocket10_gen_sample_7.sdf

>  <Molecule_ID>
sample_7

>  <logS>
-3.5030401

$$$$