/tmp/tmpcge0uwnd
  MOE2022           3D

 20 21  0  0  1  0  0  0  0  0999 V2000
   33.4980  178.5550   -4.5330 C   0  0  0  0  0  0  0  0  0  0  0  0
   37.9430  176.3380   -5.9690 C   0  0  0  0  0  0  0  0  0  0  0  0
   31.7660  179.6970   -5.7510 C   0  0  0  0  0  0  0  0  0  0  0  0
   33.9330  180.6750   -5.5480 C   0  0  0  0  0  0  0  0  0  0  0  0
   37.3090  181.1220   -4.8580 O   0  0  0  0  0  0  0  0  0  0  0  0
   37.0480  175.2790   -6.1530 C   0  0  0  0  0  0  0  0  0  0  0  0
   36.8940  180.1130   -4.2650 C   0  0  0  0  0  0  0  0  0  0  0  0
   34.6740  181.8260   -5.5300 O   0  0  0  0  0  0  0  0  0  0  0  0
   37.5180  177.4940   -5.4050 N   0  0  0  0  0  0  0  0  0  0  0  0
   32.6610  180.6850   -6.1120 C   0  0  0  0  0  0  0  0  0  0  0  0
   36.4170  178.1600   -5.8160 C   0  0  0  0  0  0  0  0  0  0  0  0
   35.4760  176.6930   -7.3370 C   0  0  0  0  0  0  0  0  0  0  0  0
   32.1840  178.6430   -4.9620 C   0  0  0  0  0  0  0  0  0  0  0  0
   34.4240  179.4930   -4.9760 C   0  0  0  0  0  0  0  0  0  0  0  0
   35.8050  177.9210   -6.9750 N   0  0  0  0  0  0  0  0  0  0  0  0
   37.3310  179.7890   -3.1360 O   0  0  0  0  0  0  0  0  0  0  0  0
   35.8050  175.5250   -6.6610 C   0  0  3  0  0  0  0  0  0  0  0  0
   34.8390  174.5640   -6.5370 O   0  0  0  0  0  0  0  0  0  0  0  0
   35.8860  179.2210   -4.9160 C   0  0  3  0  0  0  0  0  0  0  0  0
   39.0850  176.2990   -6.5020 O   0  0  0  0  0  0  0  0  0  0  0  0
  1 13  2  0  0  0  0
  1 14  1  0  0  0  0
  2  6  1  0  0  0  0
  2  9  1  0  0  0  0
  2 20  2  0  0  0  0
  3 10  2  0  0  0  0
  3 13  1  0  0  0  0
  4  8  1  0  0  0  0
  4 10  1  0  0  0  0
  4 14  2  0  0  0  0
  5  7  2  0  0  0  0
  6 17  1  0  0  0  0
  7 16  1  0  0  0  0
  7 19  1  0  0  0  0
  9 11  2  0  0  0  0
 11 15  1  0  0  0  0
 11 19  1  0  0  0  0
 12 15  2  0  0  0  0
 12 17  1  0  0  0  0
 14 19  1  0  0  0  0
 17 18  1  0  0  0  0
M  END
>  <Original_Directory>
5hmw_A_rec_5hmw_lnw_lig_tt_docked_8_pocket10

>  <Original_Filename>
5hmw_A_rec_5hmw_lnw_lig_tt_docked_8_pocket10_gen_sample_12.sdf

>  <Molecule_ID>
sample_12

>  <logS>
-1.7532901

$$$$