/tmp/tmp0te7ikcz
  MOE2022           3D

 30 34  0  0  1  0  0  0  0  0999 V2000
  -31.3920   34.0500   10.6210 C   0  0  3  0  0  0  0  0  0  0  0  0
  -35.3660   37.1310   12.3870 C   0  0  0  0  0  0  0  0  0  0  0  0
  -34.5670   34.7560   11.7550 C   0  0  0  0  0  0  0  0  0  0  0  0
  -30.5630   33.6330   12.9530 C   0  0  3  0  0  0  0  0  0  0  0  0
  -35.4150   35.6310   12.6750 C   0  0  0  0  0  0  0  0  0  0  0  0
  -30.7870   32.3280    8.9970 C   0  0  0  0  0  0  0  0  0  0  0  0
  -29.4420   33.4010   15.0350 C   0  0  0  0  0  0  0  0  0  0  0  0
  -31.1480   32.6060   10.4170 N   0  0  0  0  0  0  0  0  0  0  0  0
  -25.3750   34.7750   16.8050 C   0  0  0  0  0  0  0  0  0  0  0  0
  -29.8410   32.2150   11.0030 C   0  0  3  0  0  0  0  0  0  0  0  0
  -30.0490   31.0060    9.1030 C   0  0  0  0  0  0  0  0  0  0  0  0
  -29.9280   32.3280   12.5300 C   0  0  3  0  0  0  0  0  0  0  0  0
  -32.8400   34.4270    8.8310 O   0  0  0  0  0  0  0  0  0  0  0  0
  -34.6090   36.1170    9.6510 C   0  0  0  0  0  0  0  0  0  0  0  0
  -28.5780   32.3180   13.0810 N   0  0  0  0  0  0  0  0  0  0  0  0
  -32.6930   34.5910   10.0430 C   0  0  0  0  0  0  0  0  0  0  0  0
  -27.0270   33.6820   14.4450 C   0  0  0  0  0  0  0  0  0  0  0  0
  -26.2470   35.8970   14.7280 C   0  0  0  0  0  0  0  0  0  0  0  0
  -30.5580   33.8800   14.3430 C   0  0  0  0  0  0  0  0  0  0  0  0
  -25.4690   33.4330   16.4030 C   0  0  0  0  0  0  0  0  0  0  0  0
  -33.7050   35.5080   10.7550 C   0  0  2  0  0  0  0  0  0  0  0  0
  -31.0200   34.5520   11.9920 C   0  0  0  0  0  0  0  0  0  0  0  0
  -25.6980   35.8540   15.9830 C   0  0  0  0  0  0  0  0  0  0  0  0
  -28.3440   33.0740   14.1840 C   0  0  3  0  0  0  0  0  0  0  0  0
  -33.9360   37.6020   12.2290 C   0  0  0  0  0  0  0  0  0  0  0  0
  -26.7920   34.9270   13.9640 N   0  0  0  0  0  0  0  0  0  0  0  0
  -26.1200   32.9850   15.2530 C   0  0  0  0  0  0  0  0  0  0  0  0
  -32.9830   36.6600   11.4960 C   0  0  0  0  0  0  0  0  0  0  0  0
  -29.8700   30.1610    8.2250 O   0  0  0  0  0  0  0  0  0  0  0  0
  -29.8480   30.7430   10.5790 C   0  0  0  0  0  0  0  0  0  0  0  0
  1  8  1  0  0  0  0
  1 16  1  0  0  0  0
  1 22  1  0  0  0  0
  2  5  1  0  0  0  0
  2 25  1  0  0  0  0
  3  5  2  0  0  0  0
  3 21  1  0  0  0  0
  4 12  1  0  0  0  0
  4 19  1  0  0  0  0
  4 22  1  0  0  0  0
  6  8  1  0  0  0  0
  6 11  1  0  0  0  0
  7 19  1  0  0  0  0
  7 24  1  0  0  0  0
  8 10  1  0  0  0  0
  9 20  1  0  0  0  0
  9 23  2  0  0  0  0
 10 12  1  0  0  0  0
 10 30  1  0  0  0  0
 11 29  2  0  0  0  0
 11 30  1  0  0  0  0
 12 15  1  0  0  0  0
 13 16  2  0  0  0  0
 14 21  1  0  0  0  0
 15 24  1  0  0  0  0
 16 21  1  0  0  0  0
 17 24  1  0  0  0  0
 17 26  1  0  0  0  0
 17 27  2  0  0  0  0
 18 23  1  0  0  0  0
 18 26  2  0  0  0  0
 20 27  1  0  0  0  0
 21 28  1  0  0  0  0
 25 28  1  0  0  0  0
M  END
>  <Original_Directory>
5c8m_A_rec_5c8m_4yw_lig_tt_docked_0_pocket10

>  <Original_Filename>
5c8m_A_rec_5c8m_4yw_lig_tt_docked_0_pocket10_gen_sample_1.sdf

>  <Molecule_ID>
sample_1

>  <logS>
-3.6886899

$$$$