/tmp/tmpahh9nhng
  MOE2022           3D

 22 26  0  0  1  0  0  0  0  0999 V2000
   15.9390   10.5540   16.9590 C   0  0  2  0  0  0  0  0  0  0  0  0
   14.2800   13.2770   18.6380 C   0  0  0  0  0  0  0  0  0  0  0  0
   14.5730   12.0120   18.1740 C   0  0  0  0  0  0  0  0  0  0  0  0
   20.3310    8.4540   12.8630 C   0  0  0  0  0  0  0  0  0  0  0  0
   19.1040    7.9840   13.2760 C   0  0  0  0  0  0  0  0  0  0  0  0
   14.9320   10.9660   19.0240 C   0  0  0  0  0  0  0  0  0  0  0  0
   14.0020   13.5220   19.9810 C   0  0  0  0  0  0  0  0  0  0  0  0
   13.5330   12.6400   20.9040 C   0  0  0  0  0  0  0  0  0  0  0  0
   19.8210   10.8180   12.3960 C   0  0  0  0  0  0  0  0  0  0  0  0
   18.1480    8.7240   13.9340 C   0  0  0  0  0  0  0  0  0  0  0  0
   18.0790   10.1160   13.9770 C   0  0  0  0  0  0  0  0  0  0  0  0
   15.0140   11.7660   16.7670 C   0  0  0  0  0  0  0  0  0  0  0  0
   16.1070    9.2470   14.9520 C   0  0  3  0  0  0  0  0  0  0  0  0
   17.0230    8.0780   14.6850 C   0  0  0  0  0  0  0  0  0  0  0  0
   16.9360   10.5310   14.8470 C   0  0  3  0  0  0  0  0  0  0  0  0
   17.2730   10.8940   16.2920 C   0  0  0  0  0  0  0  0  0  0  0  0
   13.3780   11.2810   20.8560 C   0  0  0  0  0  0  0  0  0  0  0  0
   14.1220   10.4520   20.0250 C   0  0  0  0  0  0  0  0  0  0  0  0
   15.3610    9.3330   16.2510 C   0  0  0  0  0  0  0  0  0  0  0  0
   18.6030   10.9550   13.0190 C   0  0  0  0  0  0  0  0  0  0  0  0
   16.0370   10.1590   18.4350 C   0  0  0  0  0  0  0  0  0  0  0  0
   20.6690    9.7440   12.5120 C   0  0  0  0  0  0  0  0  0  0  0  0
  1 12  1  0  0  0  0
  1 16  1  0  0  0  0
  1 19  1  0  0  0  0
  1 21  1  0  0  0  0
  2  3  2  0  0  0  0
  2  7  1  0  0  0  0
  3  6  1  0  0  0  0
  3 12  1  0  0  0  0
  4  5  1  0  0  0  0
  4 22  2  0  0  0  0
  5 10  1  0  0  0  0
  6 18  2  0  0  0  0
  6 21  1  0  0  0  0
  7  8  1  0  0  0  0
  8 17  2  0  0  0  0
  9 20  2  0  0  0  0
  9 22  1  0  0  0  0
 10 11  2  0  0  0  0
 10 14  1  0  0  0  0
 11 15  1  0  0  0  0
 11 20  1  0  0  0  0
 13 14  1  0  0  0  0
 13 15  1  0  0  0  0
 13 19  1  0  0  0  0
 15 16  1  0  0  0  0
 17 18  1  0  0  0  0
M  END
>  <Original_Directory>
5alj_A_rec_5alr_8tm_lig_tt_docked_0_pocket10

>  <Original_Filename>
5alj_A_rec_5alr_8tm_lig_tt_docked_0_pocket10_gen_sample_9.sdf

>  <Molecule_ID>
sample_9

>  <logS>
-6.13936

$$$$