/tmp/tmpu9u_4878
  MOE2022           3D

 17 18  0  0  1  0  0  0  0  0999 V2000
   14.1650  -32.0450   23.3820 C   0  0  0  0  0  0  0  0  0  0  0  0
   15.7010  -29.8450   24.2540 N   0  0  0  0  0  0  0  0  0  0  0  0
   17.7060  -34.3340   24.8420 O   0  0  0  0  0  0  0  0  0  0  0  0
   14.2810  -29.8170   24.4220 N   0  0  0  0  0  0  0  0  0  0  0  0
   15.1110  -37.8340   24.6310 O   0  0  0  0  0  0  0  0  0  0  0  0
   15.4970  -33.0070   25.2380 C   0  0  3  0  0  0  0  0  0  0  0  0
   15.6130  -35.5960   25.4400 O   0  0  0  0  0  0  0  0  0  0  0  0
   16.4290  -31.0800   23.9830 C   0  0  0  0  0  0  0  0  0  0  0  0
   16.8130  -34.2170   27.1560 O   0  0  0  0  0  0  0  0  0  0  0  0
   14.2580  -32.8070   26.0600 C   0  0  0  0  0  0  0  0  0  0  0  0
   15.6680  -36.5310   24.1350 P   0  0  0  0  0  0  0  0  0  0  0  0
   16.5380  -34.3370   25.7210 P   0  0  1  0  0  0  0  0  0  0  0  0
   15.5810  -32.3600   23.8750 C   0  0  3  0  0  0  0  0  0  0  0  0
   13.5510  -31.6180   25.7380 O   0  0  0  0  0  0  0  0  0  0  0  0
   14.8300  -35.8290   23.0960 O   0  0  0  0  0  0  0  0  0  0  0  0
   17.0950  -36.7190   23.6760 O   0  0  0  0  0  0  0  0  0  0  0  0
   13.5450  -31.0900   24.4140 C   0  0  3  0  0  0  0  0  0  0  0  0
  1 13  1  0  0  0  0
  1 17  1  0  0  0  0
  2  4  1  0  0  0  0
  2  8  2  0  0  0  0
  3 12  2  0  0  0  0
  4 17  1  0  0  0  0
  5 11  1  0  0  0  0
  6 10  1  0  0  0  0
  6 12  1  0  0  0  0
  6 13  1  0  0  0  0
  7 11  1  0  0  0  0
  7 12  1  0  0  0  0
  8 13  1  0  0  0  0
  9 12  1  0  0  0  0
 10 14  1  0  0  0  0
 11 15  2  0  0  0  0
 11 16  1  0  0  0  0
 14 17  1  0  0  0  0
M  END
>  <Original_Directory>
2f92_F_rec_3s4j_unv_lig_tt_docked_0_pocket10

>  <Original_Filename>
2f92_F_rec_3s4j_unv_lig_tt_docked_0_pocket10_gen_sample_14.sdf

>  <Molecule_ID>
sample_14

>  <logS>
1.18749

$$$$