/tmp/tmpab37ljpm
  MOE2022           3D

 11 12  0  0  0  0  0  0  0  0999 V2000
   12.4880   -0.6020   27.1070 C   0  0  0  0  0  0  0  0  0  0  0  0
    9.7320    0.7490   26.7680 C   0  0  0  0  0  0  0  0  0  0  0  0
   10.1560    0.3580   25.5000 C   0  0  0  0  0  0  0  0  0  0  0  0
    8.6500    1.7940   26.7810 C   0  0  0  0  0  0  0  0  0  0  0  0
    9.6160    0.5430   29.2760 C   0  0  0  0  0  0  0  0  0  0  0  0
    8.8960    1.8750   29.3070 C   0  0  0  0  0  0  0  0  0  0  0  0
   11.3290   -0.1750   25.0780 C   0  0  0  0  0  0  0  0  0  0  0  0
   11.5150   -0.3850   28.0220 C   0  0  0  0  0  0  0  0  0  0  0  0
   10.3350    0.3360   27.9650 C   0  0  0  0  0  0  0  0  0  0  0  0
    8.0160    2.0750   28.1140 C   0  0  0  0  0  0  0  0  0  0  0  0
   12.4420   -0.5220   25.7680 N   0  0  0  0  0  0  0  0  0  0  0  0
  1  8  1  0  0  0  0
  1 11  2  0  0  0  0
  2  3  1  0  0  0  0
  2  4  1  0  0  0  0
  2  9  2  0  0  0  0
  3  7  2  0  0  0  0
  4 10  1  0  0  0  0
  5  6  1  0  0  0  0
  5  9  1  0  0  0  0
  6 10  1  0  0  0  0
  7 11  1  0  0  0  0
  8  9  1  0  0  0  0
M  END
>  <Original_Directory>
4x58_A_rec_4own_5rg_lig_tt_min_0_pocket10

>  <Original_Filename>
4x58_A_rec_4own_5rg_lig_tt_min_0_pocket10_gen_sample_1.sdf

>  <Molecule_ID>
sample_1

>  <logS>
-2.11621

$$$$