/tmp/tmp93id0af3
  MOE2022           3D

 23 25  0  0  1  0  0  0  0  0999 V2000
  -24.8750  -23.4610   17.0160 O   0  0  0  0  0  0  0  0  0  0  0  0
  -23.6300  -19.1740   15.5920 C   0  0  3  0  0  0  0  0  0  0  0  0
  -22.3390  -17.7130   16.8050 O   0  0  0  0  0  0  0  0  0  0  0  0
  -23.0700  -15.7720   14.8910 C   0  0  0  0  0  0  0  0  0  0  0  0
  -26.0050  -14.8150   15.2640 C   0  0  0  0  0  0  0  0  0  0  0  0
  -26.1850  -16.1770   15.1370 C   0  0  0  0  0  0  0  0  0  0  0  0
  -25.5240  -21.5900   18.3160 O   0  0  0  0  0  0  0  0  0  0  0  0
  -23.8560  -16.8160   15.3460 C   0  0  3  0  0  0  0  0  0  0  0  0
  -27.3650  -16.7080   15.4850 O   0  0  0  0  0  0  0  0  0  0  0  0
  -24.9260  -21.3930   16.0280 C   0  0  3  0  0  0  0  0  0  0  0  0
  -24.8490  -19.3320   14.9320 C   0  0  3  0  0  0  0  0  0  0  0  0
  -25.1370  -17.0190   14.8440 C   0  0  0  0  0  0  0  0  0  0  0  0
  -23.5870  -14.5100   14.6750 C   0  0  0  0  0  0  0  0  0  0  0  0
  -23.5500  -21.4570   15.9580 C   0  0  0  0  0  0  0  0  0  0  0  0
  -25.5990  -20.4650   15.2410 C   0  0  0  0  0  0  0  0  0  0  0  0
  -23.2230  -17.8930   15.9410 C   0  0  0  0  0  0  0  0  0  0  0  0
  -25.6210  -22.2480   17.0550 C   0  0  0  0  0  0  0  0  0  0  0  0
  -24.8790  -14.1550   14.9110 C   0  0  0  0  0  0  0  0  0  0  0  0
  -22.7430  -13.5370   14.3180 N   0  0  0  0  0  0  0  0  0  0  0  0
  -25.4530  -18.2720   12.9570 O   0  0  0  0  0  0  0  0  0  0  0  0
  -22.8640  -20.2830   15.8170 N   0  0  0  0  0  0  0  0  0  0  0  0
  -26.9180  -22.4870   16.7160 O   0  0  0  0  0  0  0  0  0  0  0  0
  -25.3270  -18.2360   14.2080 C   0  0  0  0  0  0  0  0  0  0  0  0
  1 17  1  0  0  0  0
  2 11  1  0  0  0  0
  2 16  1  0  0  0  0
  2 21  1  0  0  0  0
  3 16  2  0  0  0  0
  4  8  1  0  0  0  0
  4 13  2  0  0  0  0
  5  6  1  0  0  0  0
  5 18  2  0  0  0  0
  6  9  1  0  0  0  0
  6 12  2  0  0  0  0
  7 17  1  0  0  0  0
  8 12  1  0  0  0  0
  8 16  1  0  0  0  0
 10 14  1  0  0  0  0
 10 15  1  0  0  0  0
 10 17  1  0  0  0  0
 11 15  1  0  0  0  0
 11 23  1  0  0  0  0
 12 23  1  0  0  0  0
 13 18  1  0  0  0  0
 13 19  1  0  0  0  0
 14 21  2  0  0  0  0
 17 22  1  0  0  0  0
 20 23  2  0  0  0  0
M  END
>  <Original_Directory>
1r58_A_rec_5jfr_6kp_lig_tt_docked_1_pocket10

>  <Original_Filename>
1r58_A_rec_5jfr_6kp_lig_tt_docked_1_pocket10_gen_sample_15.sdf

>  <Molecule_ID>
sample_15

>  <logS>
-0.76063001

$$$$