/tmp/tmpvcqsq_p9
  MOE2022           3D

 20 23  0  0  1  0  0  0  0  0999 V2000
  -33.9540   10.0580   -4.7130 C   0  0  0  0  0  0  0  0  0  0  0  0
  -32.7550    9.4980   -5.1420 C   0  0  0  0  0  0  0  0  0  0  0  0
  -31.9900    8.7390   -4.1690 C   0  0  0  0  0  0  0  0  0  0  0  0
  -33.4180    9.8120   -7.4190 C   0  0  0  0  0  0  0  0  0  0  0  0
  -34.9860   10.1510   -5.6420 C   0  0  0  0  0  0  0  0  0  0  0  0
  -35.2510    9.4230   -1.3840 C   0  0  3  0  0  0  0  0  0  0  0  0
  -32.4050    9.6120   -6.4860 C   0  0  0  0  0  0  0  0  0  0  0  0
  -32.3640    9.0320    0.6350 O   0  0  0  0  0  0  0  0  0  0  0  0
  -34.7130   10.0380   -7.0000 C   0  0  0  0  0  0  0  0  0  0  0  0
  -33.3180    6.9880   -0.1710 C   0  0  0  0  0  0  0  0  0  0  0  0
  -35.4280   10.0220   -2.7730 C   0  0  3  0  0  0  0  0  0  0  0  0
  -35.7050    6.9670   -0.9150 C   0  0  0  0  0  0  0  0  0  0  0  0
  -34.5140    6.3620   -0.4000 C   0  0  0  0  0  0  0  0  0  0  0  0
  -36.4070   11.0510   -2.8160 O   0  0  0  0  0  0  0  0  0  0  0  0
  -33.7850    9.2420   -1.2340 C   0  0  3  0  0  0  0  0  0  0  0  0
  -33.0200    9.9230   -2.3290 C   0  0  3  0  0  0  0  0  0  0  0  0
  -32.1170    8.9440   -2.9140 N   0  0  0  0  0  0  0  0  0  0  0  0
  -36.0330    8.1620   -1.2920 C   0  0  0  0  0  0  0  0  0  0  0  0
  -33.1140    8.3610   -0.3050 C   0  0  3  0  0  0  0  0  0  0  0  0
  -34.0720   10.4760   -3.2850 C   0  0  3  0  0  0  0  0  0  0  0  0
  1  2  1  0  0  0  0
  1  5  2  0  0  0  0
  1 20  1  0  0  0  0
  2  3  1  0  0  0  0
  2  7  2  0  0  0  0
  3 17  2  0  0  0  0
  4  7  1  0  0  0  0
  4  9  2  0  0  0  0
  5  9  1  0  0  0  0
  6 11  1  0  0  0  0
  6 15  1  0  0  0  0
  6 18  1  0  0  0  0
  8 19  1  0  0  0  0
 10 13  2  0  0  0  0
 10 19  1  0  0  0  0
 11 14  1  0  0  0  0
 11 20  1  0  0  0  0
 12 13  1  0  0  0  0
 12 18  2  0  0  0  0
 15 16  1  0  0  0  0
 15 19  1  0  0  0  0
 16 17  1  0  0  0  0
 16 20  1  0  0  0  0
M  END
>  <Original_Directory>
4yq6_A_rec_4yq7_4g4_lig_tt_docked_2_pocket10

>  <Original_Filename>
4yq6_A_rec_4yq7_4g4_lig_tt_docked_2_pocket10_gen_sample_12.sdf

>  <Molecule_ID>
sample_12

>  <logS>
-2.28124

$$$$