/tmp/tmp_2e_duzq
  MOE2022           3D

 25 28  0  0  1  0  0  0  0  0999 V2000
    4.1380   10.6030   20.7470 O   0  0  0  0  0  0  0  0  0  0  0  0
    9.0650    8.5140   17.7470 C   0  0  0  0  0  0  0  0  0  0  0  0
    2.7020    6.5290   19.0790 C   0  0  0  0  0  0  0  0  0  0  0  0
    3.3420    8.7420   19.6190 C   0  0  0  0  0  0  0  0  0  0  0  0
    1.4370    7.3000   19.4060 C   0  0  3  0  0  0  0  0  0  0  0  0
    7.7300    6.7640   19.4270 C   0  0  0  0  0  0  0  0  0  0  0  0
    7.2770    8.0620   19.1780 C   0  0  3  0  0  0  0  0  0  0  0  0
    0.4840    8.4590   17.5550 O   0  0  0  0  0  0  0  0  0  0  0  0
    5.0270    7.4380   18.5250 C   0  0  0  0  0  0  0  0  0  0  0  0
    9.0360    7.1380   17.5160 C   0  0  3  0  0  0  0  0  0  0  0  0
    3.7510    7.5600   19.0520 C   0  0  0  0  0  0  0  0  0  0  0  0
    5.9520    8.3870   18.9360 C   0  0  3  0  0  0  0  0  0  0  0  0
    8.7580    6.2870   18.5980 C   0  0  0  0  0  0  0  0  0  0  0  0
   10.0350    6.9530   15.2980 C   0  0  0  0  0  0  0  0  0  0  0  0
    5.4920    9.6460   19.2110 N   0  0  0  0  0  0  0  0  0  0  0  0
    8.2420    8.9860   18.7680 C   0  0  0  0  0  0  0  0  0  0  0  0
    1.8840    8.6620   19.9260 C   0  0  0  0  0  0  0  0  0  0  0  0
   10.7870    8.0770   15.2800 C   0  0  0  0  0  0  0  0  0  0  0  0
   10.6870    9.2140   16.0190 C   0  0  0  0  0  0  0  0  0  0  0  0
    9.8030    9.4580   17.0420 C   0  0  0  0  0  0  0  0  0  0  0  0
    8.4450   10.0610   19.3710 O   0  0  0  0  0  0  0  0  0  0  0  0
    9.1410    6.5640   16.2520 C   0  0  0  0  0  0  0  0  0  0  0  0
    0.1560    6.2670   17.7030 O   0  0  0  0  0  0  0  0  0  0  0  0
    0.5980    7.3670   18.1490 C   0  0  0  0  0  0  0  0  0  0  0  0
    4.2970    9.7360   19.8840 C   0  0  0  0  0  0  0  0  0  0  0  0
  1 25  2  0  0  0  0
  2 10  1  0  0  0  0
  2 16  1  0  0  0  0
  2 20  2  0  0  0  0
  3  5  1  0  0  0  0
  3 11  1  0  0  0  0
  4 11  2  0  0  0  0
  4 17  1  0  0  0  0
  4 25  1  0  0  0  0
  5 17  1  0  0  0  0
  5 24  1  0  0  0  0
  6  7  1  0  0  0  0
  6 13  1  0  0  0  0
  7 12  1  0  0  0  0
  7 16  1  0  0  0  0
  8 24  2  0  0  0  0
  9 11  1  0  0  0  0
  9 12  1  0  0  0  0
 10 13  1  0  0  0  0
 10 22  1  0  0  0  0
 12 15  1  0  0  0  0
 14 18  1  0  0  0  0
 14 22  2  0  0  0  0
 15 25  1  0  0  0  0
 16 21  2  0  0  0  0
 18 19  2  0  0  0  0
 19 20  1  0  0  0  0
 23 24  1  0  0  0  0
M  END
>  <Original_Directory>
4ftj_A_rec_4ft5_h2k_lig_tt_docked_1_pocket10

>  <Original_Filename>
4ftj_A_rec_4ft5_h2k_lig_tt_docked_1_pocket10_gen_sample_15.sdf

>  <Molecule_ID>
sample_15

>  <logS>
-2.3699

$$$$