/tmp/tmpszv1neul
  MOE2022           3D

 21 23  0  0  0  0  0  0  0  0999 V2000
  -22.3350    0.4110  -11.3880 O   0  0  0  0  0  0  0  0  0  0  0  0
  -21.6470    2.0160   -4.7140 N   0  0  0  0  0  0  0  0  0  0  0  0
  -21.1640   -0.8150   -6.8650 C   0  0  0  0  0  0  0  0  0  0  0  0
  -21.0630   -1.4330  -10.0090 O   0  0  0  0  0  0  0  0  0  0  0  0
  -20.4540    1.1680   -8.0000 C   0  0  0  0  0  0  0  0  0  0  0  0
  -22.2870    0.6120  -10.1400 C   0  0  0  0  0  0  0  0  0  0  0  0
  -23.8590    0.3820   -1.9740 C   0  0  0  0  0  0  0  0  0  0  0  0
  -21.8450   -0.5390   -9.2490 C   0  0  0  0  0  0  0  0  0  0  0  0
  -21.1290   -0.1270   -5.6520 C   0  0  0  0  0  0  0  0  0  0  0  0
  -23.1900    1.5220   -1.5270 C   0  0  0  0  0  0  0  0  0  0  0  0
  -21.9340    1.3820   -3.5570 C   0  0  0  0  0  0  0  0  0  0  0  0
  -20.4060    1.8610   -6.7900 C   0  0  0  0  0  0  0  0  0  0  0  0
  -22.1520   -0.0230   -3.5720 C   0  0  0  0  0  0  0  0  0  0  0  0
  -25.6060    0.4860   -2.0060 Cl  0  0  0  0  0  0  0  0  0  0  0  0
  -21.1110   -0.0600   -8.0300 C   0  0  0  0  0  0  0  0  0  0  0  0
  -22.5880    1.7140   -9.6190 O   0  0  0  0  0  0  0  0  0  0  0  0
  -21.3510   -0.7770   -4.4390 C   0  0  0  0  0  0  0  0  0  0  0  0
  -22.2550    2.0850   -2.3930 C   0  0  0  0  0  0  0  0  0  0  0  0
  -21.0590    1.2890   -5.6960 C   0  0  0  0  0  0  0  0  0  0  0  0
  -23.0110   -1.2030   -8.8000 O   0  0  0  0  0  0  0  0  0  0  0  0
  -23.2380   -0.5060   -2.8500 C   0  0  0  0  0  0  0  0  0  0  0  0
  1  6  2  0  0  0  0
  2 11  1  0  0  0  0
  2 19  1  0  0  0  0
  3  9  2  0  0  0  0
  3 15  1  0  0  0  0
  4  8  1  0  0  0  0
  5 12  1  0  0  0  0
  5 15  2  0  0  0  0
  6  8  1  0  0  0  0
  6 16  1  0  0  0  0
  7 10  2  0  0  0  0
  7 14  1  0  0  0  0
  7 21  1  0  0  0  0
  8 15  1  0  0  0  0
  8 20  1  0  0  0  0
  9 17  1  0  0  0  0
  9 19  1  0  0  0  0
 10 18  1  0  0  0  0
 11 13  1  0  0  0  0
 11 18  2  0  0  0  0
 12 19  2  0  0  0  0
 13 17  1  0  0  0  0
 13 21  2  0  0  0  0
M  END
>  <Original_Directory>
1thc_A_rec_4ydm_4aj_lig_tt_min_0_pocket10

>  <Original_Filename>
1thc_A_rec_4ydm_4aj_lig_tt_min_0_pocket10_gen_sample_3.sdf

>  <Molecule_ID>
sample_3

>  <logS>
-3.5172

$$$$