/tmp/tmpxyto9g90
  MOE2022           3D

 33 36  0  0  1  0  0  0  0  0999 V2000
    5.4800   -1.3710  -52.3750 O   0  0  0  0  0  0  0  0  0  0  0  0
    4.3200    9.7360  -49.4740 C   0  0  0  0  0  0  0  0  0  0  0  0
    6.5990    1.6060  -54.1170 C   0  0  0  0  0  0  0  0  0  0  0  0
    4.5160    4.1140  -56.9020 C   0  0  0  0  0  0  0  0  0  0  0  0
    4.7310    3.9250  -55.5300 C   0  0  0  0  0  0  0  0  0  0  0  0
    2.9740    7.9190  -50.4570 C   0  0  0  0  0  0  0  0  0  0  0  0
    4.9000    9.8760  -48.4110 O   0  0  0  0  0  0  0  0  0  0  0  0
    5.0160    9.9260  -54.1580 C   0  0  3  0  0  0  0  0  0  0  0  0
    7.3390   -0.2450  -51.7580 F   0  0  0  0  0  0  0  0  0  0  0  0
    6.1260   -0.1200  -52.4220 C   0  0  2  0  0  0  0  0  0  0  0  0
    5.3210   10.8860  -55.1370 C   0  0  0  0  0  0  0  0  0  0  0  0
    5.2930    8.5990  -54.4520 N   0  0  0  0  0  0  0  0  0  0  0  0
    6.1200    7.6190  -53.9720 C   0  0  0  0  0  0  0  0  0  0  0  0
    6.3310    5.7520  -55.5340 C   0  0  0  0  0  0  0  0  0  0  0  0
    6.2670    5.7910  -56.9380 C   0  0  0  0  0  0  0  0  0  0  0  0
    6.1220    2.6130  -53.2410 C   0  0  0  0  0  0  0  0  0  0  0  0
    6.3680    4.0700  -53.5670 C   0  0  0  0  0  0  0  0  0  0  0  0
    3.6630    8.2360  -51.7830 C   0  0  0  0  0  0  0  0  0  0  0  0
    5.3290    0.8980  -51.6880 C   0  0  0  0  0  0  0  0  0  0  0  0
    3.7030   12.3640  -54.1310 C   0  0  0  0  0  0  0  0  0  0  0  0
    4.3310   10.3290  -53.0160 N   0  0  0  0  0  0  0  0  0  0  0  0
    4.5420   12.0430  -55.1980 C   0  0  0  0  0  0  0  0  0  0  0  0
    4.8930   10.0890  -50.6820 N   0  0  0  0  0  0  0  0  0  0  0  0
    3.6540   11.5260  -53.0200 C   0  0  0  0  0  0  0  0  0  0  0  0
    2.9090    9.1320  -49.5280 C   0  0  3  0  0  0  0  0  0  0  0  0
    5.4650    2.2490  -52.0420 C   0  0  0  0  0  0  0  0  0  0  0  0
    5.2780    5.0530  -57.6050 C   0  0  0  0  0  0  0  0  0  0  0  0
    6.1900    7.3430  -52.7760 O   0  0  0  0  0  0  0  0  0  0  0  0
    1.9540   10.1620  -50.1840 C   0  0  0  0  0  0  0  0  0  0  0  0
    4.3320    9.6010  -51.8330 C   0  0  3  0  0  0  0  0  0  0  0  0
    6.8450    6.8770  -54.8690 N   0  0  0  0  0  0  0  0  0  0  0  0
    5.7820    4.6020  -54.8710 C   0  0  0  0  0  0  0  0  0  0  0  0
    6.4060    0.2720  -53.8230 C   0  0  0  0  0  0  0  0  0  0  0  0
  1 10  1  0  0  0  0
  2  7  2  0  0  0  0
  2 23  1  0  0  0  0
  2 25  1  0  0  0  0
  3 16  2  0  0  0  0
  3 33  1  0  0  0  0
  4  5  2  0  0  0  0
  4 27  1  0  0  0  0
  5 32  1  0  0  0  0
  6 18  1  0  0  0  0
  6 25  1  0  0  0  0
  8 11  1  0  0  0  0
  8 12  1  0  0  0  0
  8 21  1  0  0  0  0
  9 10  1  0  0  0  0
 10 19  1  0  0  0  0
 10 33  1  0  0  0  0
 11 22  2  0  0  0  0
 12 13  1  0  0  0  0
 13 28  2  0  0  0  0
 13 31  1  0  0  0  0
 14 15  1  0  0  0  0
 14 31  1  0  0  0  0
 14 32  2  0  0  0  0
 15 27  2  0  0  0  0
 16 17  1  0  0  0  0
 16 26  1  0  0  0  0
 17 32  1  0  0  0  0
 18 30  1  0  0  0  0
 19 26  2  0  0  0  0
 20 22  1  0  0  0  0
 20 24  2  0  0  0  0
 21 24  1  0  0  0  0
 21 30  1  0  0  0  0
 23 30  1  0  0  0  0
 25 29  1  0  0  0  0
M  END
>  <Original_Directory>
2xh1_B_rec_4geb_0ld_lig_tt_docked_1_pocket10

>  <Original_Filename>
2xh1_B_rec_4geb_0ld_lig_tt_docked_1_pocket10_gen_sample_8.sdf

>  <Molecule_ID>
sample_8

>  <logS>
-4.0875401

$$$$