
  MOE2022           3D

 24 25  0  0  1  0  0  0  0  0999 V2000
   16.8400   -1.6800  113.7820 N   0  0  0  0  0  0  0  0  0  0  0  0
   18.1190   -3.6080  114.4270 N   0  0  0  0  0  0  0  0  0  0  0  0
   15.3990   -1.8960  115.6900 C   0  0  0  0  0  0  0  0  0  0  0  0
   15.4380    1.0270  117.2190 O   0  0  0  0  0  0  0  0  0  0  0  0
   15.2440    3.9650  112.3290 C   0  0  0  0  0  0  0  0  0  0  0  0
   14.7820   -4.1290  114.9540 O   0  0  0  0  0  0  0  0  0  0  0  0
   14.6270    2.9520  114.3170 C   0  0  0  0  0  0  0  0  0  0  0  0
   16.1660    7.5920  113.0730 C   0  0  0  0  0  0  0  0  0  0  0  0
   14.0580    0.6550  114.2340 O   0  0  0  0  0  0  0  0  0  0  0  0
   14.4370    4.1840  114.9150 C   0  0  0  0  0  0  0  0  0  0  0  0
   14.4200    1.6920  115.1000 C   0  0  0  0  0  0  0  0  0  0  0  0
   17.4950    0.9000  114.3240 O   0  0  0  0  0  0  0  0  0  0  0  0
   16.0930    6.4030  111.0010 N   0  0  0  0  0  0  0  0  0  0  0  0
   15.8790   -3.2890  115.2690 C   0  0  3  0  0  0  0  0  0  0  0  0
   16.8310   -3.1140  114.0730 C   0  0  1  0  0  0  0  0  0  0  0  0
   15.1800    5.2280  112.9040 C   0  0  0  0  0  0  0  0  0  0  0  0
   13.3070    1.8260  115.9620 O   0  0  0  0  0  0  0  0  0  0  0  0
   15.8950   -0.9420  114.6110 C   0  0  3  0  0  0  0  0  0  0  0  0
   15.8060    6.3880  112.2550 C   0  0  0  0  0  0  0  0  0  0  0  0
   16.6020    0.2620  115.2340 C   0  0  3  0  0  0  0  0  0  0  0  0
   15.7090    1.3300  115.8580 C   0  0  3  0  0  0  0  0  0  0  0  0
   15.1040    2.8530  113.0570 N   0  0  0  0  0  0  0  0  0  0  0  0
   14.5670    5.3310  114.1510 C   0  0  0  0  0  0  0  0  0  0  0  0
   16.4190   -3.8390  112.9900 O   0  0  0  0  0  0  0  0  0  0  0  0
  1 15  1  0  0  0  0
  1 18  1  0  0  0  0
  2 15  1  0  0  0  0
  3 14  1  0  0  0  0
  3 18  1  0  0  0  0
  4 21  1  0  0  0  0
  5 16  1  0  0  0  0
  5 22  2  0  0  0  0
  6 14  1  0  0  0  0
  7 10  2  0  0  0  0
  7 11  1  0  0  0  0
  7 22  1  0  0  0  0
  8 19  1  0  0  0  0
  9 11  1  0  0  0  0
 10 23  1  0  0  0  0
 11 17  1  0  0  0  0
 11 21  1  0  0  0  0
 12 20  1  0  0  0  0
 13 19  2  0  0  0  0
 14 15  1  0  0  0  0
 15 24  1  0  0  0  0
 16 19  1  0  0  0  0
 16 23  2  0  0  0  0
 18 20  1  0  0  0  0
 20 21  1  0  0  0  0
M  END
>  <Original_Directory>
1zjn_A_rec_1mq3_dcp_lig_tt_docked_3_pocket10

>  <Original_Filename>
1zjn_A_rec_1mq3_dcp_lig_tt_docked_3_pocket10_gen_sample_8.sdf

>  <Molecule_ID>
sample_8

>  <logS>
0.47220001

$$$$