/tmp/tmpxjsx2_ej
  MOE2022           3D

 15 16  0  0  1  0  0  0  0  0999 V2000
   -5.2770    1.9040  -26.5120 O   0  0  0  0  0  0  0  0  0  0  0  0
   -3.5310    2.9420  -28.6080 C   0  0  3  0  0  0  0  0  0  0  0  0
   -3.9900    1.4230  -26.6240 C   0  0  0  0  0  0  0  0  0  0  0  0
   -2.3620    0.8340  -30.0080 C   0  0  0  0  0  0  0  0  0  0  0  0
   -2.6310    2.0060  -30.7090 C   0  0  0  0  0  0  0  0  0  0  0  0
   -3.5850    3.0120  -30.1230 C   0  0  2  0  0  0  0  0  0  0  0  0
   -3.6700    4.0900  -27.8550 C   0  0  0  0  0  0  0  0  0  0  0  0
   -2.8040    0.6340  -28.6900 C   0  0  0  0  0  0  0  0  0  0  0  0
   -3.1460    2.0470  -25.5410 C   0  0  0  0  0  0  0  0  0  0  0  0
   -3.3150    4.2580  -26.5490 C   0  0  0  0  0  0  0  0  0  0  0  0
   -3.1540    4.3080  -30.5400 O   0  0  0  0  0  0  0  0  0  0  0  0
   -3.4410    1.6560  -28.0070 C   0  0  0  0  0  0  0  0  0  0  0  0
   -4.1550    0.0520  -26.3580 O   0  0  0  0  0  0  0  0  0  0  0  0
   -5.0020    2.7930  -30.6150 C   0  0  0  0  0  0  0  0  0  0  0  0
   -2.6820    3.2940  -25.7420 C   0  0  0  0  0  0  0  0  0  0  0  0
  1  3  1  0  0  0  0
  2  6  1  0  0  0  0
  2  7  1  0  0  0  0
  2 12  1  0  0  0  0
  3  9  1  0  0  0  0
  3 12  1  0  0  0  0
  3 13  1  0  0  0  0
  4  5  2  0  0  0  0
  4  8  1  0  0  0  0
  5  6  1  0  0  0  0
  6 11  1  0  0  0  0
  6 14  1  0  0  0  0
  7 10  2  0  0  0  0
  8 12  2  0  0  0  0
  9 15  1  0  0  0  0
 10 15  1  0  0  0  0
M  END
>  <Original_Directory>
4wr7_A_rec_2nn1_m28_lig_tt_min_0_pocket10

>  <Original_Filename>
4wr7_A_rec_2nn1_m28_lig_tt_min_0_pocket10_gen_sample_19.sdf

>  <Molecule_ID>
sample_19

>  <logS>
-1.03099

$$$$