/tmp/tmpuywvxdpr
  MOE2022           3D

 15 16  0  0  1  0  0  0  0  0999 V2000
   -4.4310    2.8050  -26.4670 C   0  0  0  0  0  0  0  0  0  0  0  0
   -2.0040    1.5650  -31.0480 O   0  0  0  0  0  0  0  0  0  0  0  0
   -3.5910    3.3730  -31.1020 O   0  0  0  0  0  0  0  0  0  0  0  0
   -3.4260    0.7760  -28.5820 C   0  0  0  0  0  0  0  0  0  0  0  0
   -3.5660    0.6830  -27.2140 C   0  0  0  0  0  0  0  0  0  0  0  0
   -3.5810    1.9550  -29.2480 C   0  0  0  0  0  0  0  0  0  0  0  0
   -4.3120    3.0420  -28.8650 C   0  0  0  0  0  0  0  0  0  0  0  0
   -3.9880    5.2070  -29.8690 O   0  0  0  0  0  0  0  0  0  0  0  0
   -5.7480    4.0060  -30.4920 O   0  0  0  0  0  0  0  0  0  0  0  0
   -3.5030    1.7830  -26.3890 C   0  0  3  0  0  0  0  0  0  0  0  0
   -2.4610    1.9120  -25.5450 N   0  0  0  0  0  0  0  0  0  0  0  0
   -4.7010    4.9100  -27.4570 O   0  0  0  0  0  0  0  0  0  0  0  0
   -3.2720    2.0430  -30.7060 C   0  0  3  0  0  0  0  0  0  0  0  0
   -4.4530    3.9350  -30.1010 C   0  0  0  0  0  0  0  0  0  0  0  0
   -4.4910    3.5780  -27.6170 C   0  0  0  0  0  0  0  0  0  0  0  0
  1 10  1  0  0  0  0
  1 15  2  0  0  0  0
  2 13  1  0  0  0  0
  3 13  1  0  0  0  0
  3 14  1  0  0  0  0
  4  5  2  0  0  0  0
  4  6  1  0  0  0  0
  5 10  1  0  0  0  0
  6  7  2  0  0  0  0
  6 13  1  0  0  0  0
  7 14  1  0  0  0  0
  7 15  1  0  0  0  0
  8 14  1  0  0  0  0
  9 14  1  0  0  0  0
 10 11  1  0  0  0  0
 12 15  1  0  0  0  0
M  END
>  <Original_Directory>
4wr7_A_rec_2nn1_m28_lig_tt_min_0_pocket10

>  <Original_Filename>
4wr7_A_rec_2nn1_m28_lig_tt_min_0_pocket10_gen_sample_11.sdf

>  <Molecule_ID>
sample_11

>  <logS>
-0.31797001

$$$$