/tmp/tmpmkchgx1h
  MOE2022           3D

 14 14  0  0  1  0  0  0  0  0999 V2000
   19.4100   34.5870   24.7230 N   0  0  0  0  0  0  0  0  0  0  0  0
   19.1620   33.7160   25.8880 C   0  0  3  0  0  0  0  0  0  0  0  0
   19.5970   32.2410   25.5520 C   0  0  0  0  0  0  0  0  0  0  0  0
   20.8090   32.1420   24.9620 O   0  0  0  0  0  0  0  0  0  0  0  0
   19.6060   31.5590   26.7690 O   0  0  0  0  0  0  0  0  0  0  0  0
   18.6060   35.8120   29.8290 C   0  0  0  0  0  0  0  0  0  0  0  0
   16.4700   37.2270   28.8020 C   0  0  0  0  0  0  0  0  0  0  0  0
   17.1010   37.6860   29.9620 C   0  0  0  0  0  0  0  0  0  0  0  0
   18.0590   36.8680   30.5580 C   0  0  0  0  0  0  0  0  0  0  0  0
   19.3710   35.5350   27.5320 N   0  0  0  0  0  0  0  0  0  0  0  0
   17.0830   36.2230   28.0490 C   0  0  0  0  0  0  0  0  0  0  0  0
   18.6990   31.5750   24.7490 O   0  0  0  0  0  0  0  0  0  0  0  0
   19.8950   34.2300   27.1500 C   0  0  0  0  0  0  0  0  0  0  0  0
   18.3490   35.7980   28.4540 C   0  0  0  0  0  0  0  0  0  0  0  0
  1  2  1  0  0  0  0
  2  3  1  0  0  0  0
  2 13  1  0  0  0  0
  3  4  1  0  0  0  0
  3  5  1  0  0  0  0
  3 12  1  0  0  0  0
  6  9  1  0  0  0  0
  6 14  2  0  0  0  0
  7  8  1  0  0  0  0
  7 11  2  0  0  0  0
  8  9  2  0  0  0  0
 10 13  1  0  0  0  0
 10 14  1  0  0  0  0
 11 14  1  0  0  0  0
M  END
>  <Original_Directory>
5ntn_C_rec_5g44_swx_lig_tt_min_0_pocket10

>  <Original_Filename>
5ntn_C_rec_5g44_swx_lig_tt_min_0_pocket10_gen_sample_3.sdf

>  <Molecule_ID>
sample_3

>  <logS>
-0.377

$$$$