
  MOE2022           3D

 26 30  0  0  1  0  0  0  0  0999 V2000
  -13.3170   15.3520    3.9670 C   0  0  3  0  0  0  0  0  0  0  0  0
  -12.6390   18.6850    5.7320 C   0  0  0  0  0  0  0  0  0  0  0  0
  -10.9010   17.1360   13.1180 C   0  0  0  0  0  0  0  0  0  0  0  0
  -13.5730   19.6240    5.2500 C   0  0  0  0  0  0  0  0  0  0  0  0
  -10.9710   20.4070    9.3630 C   0  0  0  0  0  0  0  0  0  0  0  0
  -11.3060   18.0300    7.6460 C   0  0  0  0  0  0  0  0  0  0  0  0
  -12.0860   18.9820   14.3350 C   0  0  0  0  0  0  0  0  0  0  0  0
  -11.8330   20.0150   13.4330 C   0  0  0  0  0  0  0  0  0  0  0  0
  -15.5940   15.2870    4.8250 O   0  0  0  0  0  0  0  0  0  0  0  0
  -11.3280   19.9500   12.1560 C   0  0  0  0  0  0  0  0  0  0  0  0
  -10.9580   20.9020    8.1300 N   0  0  0  0  0  0  0  0  0  0  0  0
  -11.6680   20.4380    7.0580 C   0  0  0  0  0  0  0  0  0  0  0  0
  -11.0160   18.8770   11.3200 C   0  0  0  0  0  0  0  0  0  0  0  0
  -12.2700   16.1830    4.6900 C   0  0  0  0  0  0  0  0  0  0  0  0
  -10.9550   18.0190    8.9800 C   0  0  0  0  0  0  0  0  0  0  0  0
  -12.9510   17.3940    5.1770 C   0  0  0  0  0  0  0  0  0  0  0  0
  -10.6030   17.6540   11.8640 C   0  0  0  0  0  0  0  0  0  0  0  0
  -14.6370   16.0880    4.1330 C   0  0  3  0  0  0  0  0  0  0  0  0
  -11.6620   17.6580   14.1550 C   0  0  0  0  0  0  0  0  0  0  0  0
  -13.1680   20.9650    5.2340 C   0  0  0  0  0  0  0  0  0  0  0  0
  -11.8630   19.0560    6.8550 C   0  0  0  0  0  0  0  0  0  0  0  0
  -12.1420   21.3740    6.1070 C   0  0  0  0  0  0  0  0  0  0  0  0
  -14.7320   18.8980    4.5980 C   0  0  0  0  0  0  0  0  0  0  0  0
  -14.4210   17.4170    4.8420 C   0  0  3  0  0  0  0  0  0  0  0  0
  -10.9830   19.1050    9.8510 C   0  0  3  0  0  0  0  0  0  0  0  0
  -13.3320   14.0850    4.6020 O   0  0  0  0  0  0  0  0  0  0  0  0
  1 14  1  0  0  0  0
  1 18  1  0  0  0  0
  1 26  1  0  0  0  0
  2  4  1  0  0  0  0
  2 16  1  0  0  0  0
  2 21  2  0  0  0  0
  3 17  2  0  0  0  0
  3 19  1  0  0  0  0
  4 20  2  0  0  0  0
  4 23  1  0  0  0  0
  5 11  2  0  0  0  0
  5 25  1  0  0  0  0
  6 15  2  0  0  0  0
  6 21  1  0  0  0  0
  7  8  2  0  0  0  0
  7 19  1  0  0  0  0
  8 10  1  0  0  0  0
  9 18  1  0  0  0  0
 10 13  2  0  0  0  0
 11 12  1  0  0  0  0
 12 21  1  0  0  0  0
 12 22  2  0  0  0  0
 13 17  1  0  0  0  0
 13 25  1  0  0  0  0
 14 16  2  0  0  0  0
 15 25  1  0  0  0  0
 16 24  1  0  0  0  0
 18 24  1  0  0  0  0
 20 22  1  0  0  0  0
 23 24  1  0  0  0  0
M  END
>  <Original_Directory>
1y3w_A_rec_1y3v_uir_lig_tt_docked_0_pocket10

>  <Original_Filename>
1y3w_A_rec_1y3v_uir_lig_tt_docked_0_pocket10_gen_sample_7.sdf

>  <Molecule_ID>
sample_7

>  <logS>
-3.9707601

$$$$