/tmp/tmpu3p5wys2
  MOE2022           3D

 24 27  0  0  1  0  0  0  0  0999 V2000
   37.1440   35.6600   14.1880 C   0  0  0  0  0  0  0  0  0  0  0  0
   39.7670   36.3010   13.1110 C   0  0  0  0  0  0  0  0  0  0  0  0
   43.7920   35.6700   16.1090 C   0  0  0  0  0  0  0  0  0  0  0  0
   44.9920   36.4410   14.1530 C   0  0  0  0  0  0  0  0  0  0  0  0
   38.9650   33.1990   16.1710 C   0  0  0  0  0  0  0  0  0  0  0  0
   46.0870   36.9670   14.8020 C   0  0  0  0  0  0  0  0  0  0  0  0
   46.0140   36.0590   17.0210 C   0  0  0  0  0  0  0  0  0  0  0  0
   41.6240   36.0940   15.3990 C   0  0  1  0  0  0  0  0  0  0  0  0
   37.7050   37.6030   12.7810 C   0  0  0  0  0  0  0  0  0  0  0  0
   40.2870   32.9500   15.9480 C   0  0  0  0  0  0  0  0  0  0  0  0
   38.1370   34.0680   15.5360 C   0  0  0  0  0  0  0  0  0  0  0  0
   40.9900   37.3000   15.8130 N   0  0  0  0  0  0  0  0  0  0  0  0
   46.2140   37.1360   16.1660 C   0  0  0  0  0  0  0  0  0  0  0  0
   40.7120   35.0980   14.9190 C   0  0  0  0  0  0  0  0  0  0  0  0
   36.8650   36.7790   13.4710 C   0  0  0  0  0  0  0  0  0  0  0  0
   44.8520   35.3100   16.9010 C   0  0  0  0  0  0  0  0  0  0  0  0
   38.3210   35.0770   14.6090 C   0  0  0  0  0  0  0  0  0  0  0  0
   41.0290   33.7490   15.0830 C   0  0  0  0  0  0  0  0  0  0  0  0
   43.8470   36.0820   14.8120 C   0  0  0  0  0  0  0  0  0  0  0  0
   39.0460   37.3310   12.6020 C   0  0  0  0  0  0  0  0  0  0  0  0
   42.5880   36.3370   14.3370 N   0  0  0  0  0  0  0  0  0  0  0  0
   42.4230   35.6500   16.5990 C   0  0  0  0  0  0  0  0  0  0  0  0
   39.5860   35.4810   14.2060 C   0  0  0  0  0  0  0  0  0  0  0  0
   46.4920   38.3610   16.6710 O   0  0  0  0  0  0  0  0  0  0  0  0
  1 15  1  0  0  0  0
  1 17  2  0  0  0  0
  2 20  2  0  0  0  0
  2 23  1  0  0  0  0
  3 16  1  0  0  0  0
  3 19  2  0  0  0  0
  3 22  1  0  0  0  0
  4  6  2  0  0  0  0
  4 19  1  0  0  0  0
  5 10  1  0  0  0  0
  5 11  2  0  0  0  0
  6 13  1  0  0  0  0
  7 13  2  0  0  0  0
  7 16  1  0  0  0  0
  8 12  1  0  0  0  0
  8 14  1  0  0  0  0
  8 21  1  0  0  0  0
  8 22  1  0  0  0  0
  9 15  2  0  0  0  0
  9 20  1  0  0  0  0
 10 18  2  0  0  0  0
 11 17  1  0  0  0  0
 13 24  1  0  0  0  0
 14 18  1  0  0  0  0
 14 23  2  0  0  0  0
 17 23  1  0  0  0  0
 19 21  1  0  0  0  0
M  END
>  <Original_Directory>
2jid_A_rec_2iiv_565_lig_tt_min_0_pocket10

>  <Original_Filename>
2jid_A_rec_2iiv_565_lig_tt_min_0_pocket10_gen_sample_16.sdf

>  <Molecule_ID>
sample_16

>  <logS>
-3.7943699

$$$$