/tmp/tmp6d40osne
  MOE2022           3D

 18 20  0  0  1  0  0  0  0  0999 V2000
   -9.5080   -3.1950  -26.3710 C   0  0  0  0  0  0  0  0  0  0  0  0
  -11.8410   -2.2900  -28.1020 C   0  0  0  0  0  0  0  0  0  0  0  0
  -13.1890   -2.4360  -26.3110 N   0  0  0  0  0  0  0  0  0  0  0  0
   -9.3820   -2.0380  -28.5750 C   0  0  0  0  0  0  0  0  0  0  0  0
   -8.8360   -2.6990  -27.4670 C   0  0  0  0  0  0  0  0  0  0  0  0
  -17.4140   -0.5720  -28.6350 O   0  0  0  0  0  0  0  0  0  0  0  0
  -16.2630    0.5600  -27.2670 O   0  0  0  0  0  0  0  0  0  0  0  0
  -14.1500   -2.4430  -27.4160 C   0  0  2  0  0  0  0  0  0  0  0  0
  -13.1930   -2.4500  -28.6030 C   0  0  3  0  0  0  0  0  0  0  0  0
  -16.6070   -0.7680  -27.5420 C   0  0  0  0  0  0  0  0  0  0  0  0
  -15.2140   -1.7230  -29.3830 N   0  0  0  0  0  0  0  0  0  0  0  0
  -13.7910   -1.6060  -29.6900 C   0  0  0  0  0  0  0  0  0  0  0  0
  -15.2570   -1.5140  -27.9270 C   0  0  3  0  0  0  0  0  0  0  0  0
  -11.8900   -2.5910  -26.7400 C   0  0  0  0  0  0  0  0  0  0  0  0
  -14.7760   -3.7240  -27.3950 O   0  0  0  0  0  0  0  0  0  0  0  0
  -17.2040   -1.3230  -26.5070 O   0  0  0  0  0  0  0  0  0  0  0  0
  -10.7270   -1.7990  -28.7830 C   0  0  0  0  0  0  0  0  0  0  0  0
  -10.8510   -3.2940  -26.0740 C   0  0  0  0  0  0  0  0  0  0  0  0
  1  5  2  0  0  0  0
  1 18  1  0  0  0  0
  2  9  1  0  0  0  0
  2 14  2  0  0  0  0
  2 17  1  0  0  0  0
  3  8  1  0  0  0  0
  3 14  1  0  0  0  0
  4  5  1  0  0  0  0
  4 17  2  0  0  0  0
  6 10  1  0  0  0  0
  7 10  1  0  0  0  0
  8  9  1  0  0  0  0
  8 13  1  0  0  0  0
  8 15  1  0  0  0  0
  9 12  1  0  0  0  0
 10 13  1  0  0  0  0
 10 16  1  0  0  0  0
 11 12  1  0  0  0  0
 11 13  1  0  0  0  0
 14 18  1  0  0  0  0
M  END
>  <Original_Directory>
2xbl_A_rec_2xbl_m7p_lig_tt_docked_1_pocket10

>  <Original_Filename>
2xbl_A_rec_2xbl_m7p_lig_tt_docked_1_pocket10_gen_sample_5.sdf

>  <Molecule_ID>
sample_5

>  <logS>
-0.15966

$$$$