/tmp/tmp4nxsrknj
  MOE2022           3D

 27 31  0  0  1  0  0  0  0  0999 V2000
   15.2540    6.5790   19.3550 O   0  0  0  0  0  0  0  0  0  0  0  0
   15.1110    6.8040   18.1300 C   0  0  0  0  0  0  0  0  0  0  0  0
   17.8190    2.9130    8.2360 C   0  0  0  0  0  0  0  0  0  0  0  0
   14.9140    6.8430   14.9420 N   0  0  0  0  0  0  0  0  0  0  0  0
   19.9030    1.8070    7.7510 C   0  0  0  0  0  0  0  0  0  0  0  0
   17.0410    4.0140   15.5500 C   0  0  0  0  0  0  0  0  0  0  0  0
   16.7460    3.6870   16.8750 C   0  0  0  0  0  0  0  0  0  0  0  0
   15.4590    5.7090   17.1540 C   0  0  0  0  0  0  0  0  0  0  0  0
   17.6940    4.1940   10.4110 C   0  0  3  0  0  0  0  0  0  0  0  0
   20.1930    1.7170    9.1310 C   0  0  0  0  0  0  0  0  0  0  0  0
   15.0880    6.4720   13.6430 C   0  0  0  0  0  0  0  0  0  0  0  0
   16.2750    4.7120   12.2900 C   0  0  3  0  0  0  0  0  0  0  0  0
   17.6800    4.2020   11.9380 C   0  0  0  0  0  0  0  0  0  0  0  0
   18.6180    2.1710    7.3520 C   0  0  0  0  0  0  0  0  0  0  0  0
   14.6310    7.8720   17.6900 O   0  0  0  0  0  0  0  0  0  0  0  0
   14.2100    6.7190   12.4620 C   0  0  0  0  0  0  0  0  0  0  0  0
   19.1450    1.3690   11.3760 C   0  0  0  0  0  0  0  0  0  0  0  0
   18.2140    3.0310    9.5900 C   0  0  0  0  0  0  0  0  0  0  0  0
   14.6320    6.1240   11.1280 C   0  0  3  0  0  0  0  0  0  0  0  0
   14.4090    7.1410   10.1550 O   0  0  0  0  0  0  0  0  0  0  0  0
   16.3480    5.0810   14.9650 C   0  0  0  0  0  0  0  0  0  0  0  0
   16.1100    5.7050   11.1070 C   0  0  3  0  0  0  0  0  0  0  0  0
   19.1910    2.0880   10.0450 C   0  0  0  0  0  0  0  0  0  0  0  0
   16.1070    5.4800   13.5810 C   0  0  3  0  0  0  0  0  0  0  0  0
   16.3120    4.6800    9.9880 C   0  0  0  0  0  0  0  0  0  0  0  0
   15.8410    4.4470   17.6240 C   0  0  0  0  0  0  0  0  0  0  0  0
   15.5740    5.9600   15.7730 C   0  0  0  0  0  0  0  0  0  0  0  0
  1  2  1  0  0  0  0
  2  8  1  0  0  0  0
  2 15  2  0  0  0  0
  3 14  2  0  0  0  0
  3 18  1  0  0  0  0
  4 11  1  0  0  0  0
  4 27  1  0  0  0  0
  5 10  2  0  0  0  0
  5 14  1  0  0  0  0
  6  7  1  0  0  0  0
  6 21  2  0  0  0  0
  7 26  2  0  0  0  0
  8 26  1  0  0  0  0
  8 27  2  0  0  0  0
  9 13  1  0  0  0  0
  9 18  1  0  0  0  0
  9 25  1  0  0  0  0
 10 23  1  0  0  0  0
 11 16  2  0  0  0  0
 11 24  1  0  0  0  0
 12 13  1  0  0  0  0
 12 22  1  0  0  0  0
 12 24  1  0  0  0  0
 16 19  1  0  0  0  0
 17 23  1  0  0  0  0
 18 23  2  0  0  0  0
 19 20  1  0  0  0  0
 19 22  1  0  0  0  0
 21 24  1  0  0  0  0
 21 27  1  0  0  0  0
 22 25  1  0  0  0  0
M  END
>  <Original_Directory>
5ct0_A_rec_5h8b_5y2_lig_tt_min_0_pocket10

>  <Original_Filename>
5ct0_A_rec_5h8b_5y2_lig_tt_min_0_pocket10_gen_sample_9.sdf

>  <Molecule_ID>
sample_9

>  <logS>
-5.23663

$$$$