/tmp/tmpamo7sxxg
  MOE2022           3D

 27 31  0  0  1  0  0  0  0  0999 V2000
   14.7530    6.4090   19.0800 O   0  0  0  0  0  0  0  0  0  0  0  0
   14.7870    6.2020   17.7420 C   0  0  0  0  0  0  0  0  0  0  0  0
   18.2700    3.8510   10.6580 C   0  0  3  0  0  0  0  0  0  0  0  0
   17.4160    4.3780   11.7710 C   0  0  3  0  0  0  0  0  0  0  0  0
   18.3880    1.7470    6.3810 C   0  0  0  0  0  0  0  0  0  0  0  0
   16.0240    5.5660   14.8990 C   0  0  0  0  0  0  0  0  0  0  0  0
   17.9530    2.8570    8.5640 C   0  0  3  0  0  0  0  0  0  0  0  0
   15.8570    5.9410   10.3380 C   0  0  0  0  0  0  0  0  0  0  0  0
   16.0350    4.8060   16.0750 C   0  0  0  0  0  0  0  0  0  0  0  0
   13.6140    5.7700   11.2380 C   0  0  0  0  0  0  0  0  0  0  0  0
   17.6380    3.9840    9.2970 C   0  0  0  0  0  0  0  0  0  0  0  0
   14.4870    6.1590   10.2160 C   0  0  0  0  0  0  0  0  0  0  0  0
   15.3220    5.0060   17.2310 C   0  0  0  0  0  0  0  0  0  0  0  0
   15.6880    6.8680   14.9020 N   0  0  0  0  0  0  0  0  0  0  0  0
   14.7880    7.4950   15.6540 C   0  0  0  0  0  0  0  0  0  0  0  0
   17.3870    2.4790    7.2400 C   0  0  0  0  0  0  0  0  0  0  0  0
   19.2310    2.7050   10.5440 C   0  0  0  0  0  0  0  0  0  0  0  0
   19.9220    2.2390   11.4290 O   0  0  0  0  0  0  0  0  0  0  0  0
   17.4820    4.3350   13.1930 C   0  0  0  0  0  0  0  0  0  0  0  0
   16.2670    5.1980   11.4380 C   0  0  0  0  0  0  0  0  0  0  0  0
   19.9520    1.6180    8.3550 N   0  0  0  0  0  0  0  0  0  0  0  0
   15.4660    5.2130   12.5770 C   0  0  0  0  0  0  0  0  0  0  0  0
   16.2790    4.9760   13.6600 N   0  0  0  0  0  0  0  0  0  0  0  0
   14.0940    5.3090   12.4650 C   0  0  0  0  0  0  0  0  0  0  0  0
   18.8420    1.9040    9.3010 C   0  0  3  0  0  0  0  0  0  0  0  0
   19.3800    0.9100    7.1740 C   0  0  0  0  0  0  0  0  0  0  0  0
   14.2930    7.2040   16.9080 C   0  0  0  0  0  0  0  0  0  0  0  0
  1  2  1  0  0  0  0
  2 13  1  0  0  0  0
  2 27  2  0  0  0  0
  3  4  1  0  0  0  0
  3 11  1  0  0  0  0
  3 17  1  0  0  0  0
  4 19  1  0  0  0  0
  4 20  1  0  0  0  0
  5 16  1  0  0  0  0
  5 26  1  0  0  0  0
  6  9  2  0  0  0  0
  6 14  1  0  0  0  0
  6 23  1  0  0  0  0
  7 11  1  0  0  0  0
  7 16  1  0  0  0  0
  7 25  1  0  0  0  0
  8 12  2  0  0  0  0
  8 20  1  0  0  0  0
  9 13  1  0  0  0  0
 10 12  1  0  0  0  0
 10 24  2  0  0  0  0
 14 15  2  0  0  0  0
 15 27  1  0  0  0  0
 17 18  2  0  0  0  0
 17 25  1  0  0  0  0
 19 23  1  0  0  0  0
 20 22  2  0  0  0  0
 21 25  1  0  0  0  0
 21 26  1  0  0  0  0
 22 23  1  0  0  0  0
 22 24  1  0  0  0  0
M  END
>  <Original_Directory>
5ct0_A_rec_5h8b_5y2_lig_tt_min_0_pocket10

>  <Original_Filename>
5ct0_A_rec_5h8b_5y2_lig_tt_min_0_pocket10_gen_sample_13.sdf

>  <Molecule_ID>
sample_13

>  <logS>
-3.17012

$$$$