/tmp/tmpcvb6zipd
  MOE2022           3D

 29 31  0  0  1  0  0  0  0  0999 V2000
  -14.8290  -33.0990   10.3390 O   0  0  0  0  0  0  0  0  0  0  0  0
   -8.3860  -33.3350   10.0480 C   0  0  3  0  0  0  0  0  0  0  0  0
  -12.8100  -32.7170    9.3590 N   0  0  0  0  0  0  0  0  0  0  0  0
   -8.2430  -33.6810   11.4530 N   0  0  0  0  0  0  0  0  0  0  0  0
  -12.8680  -33.7270   11.7260 C   0  0  0  0  0  0  0  0  0  0  0  0
  -11.5380  -35.6840   11.5890 C   0  0  0  0  0  0  0  0  0  0  0  0
   -5.7950  -35.7840    9.3410 O   0  0  0  0  0  0  0  0  0  0  0  0
   -7.2000  -34.4720   11.9770 C   0  0  0  0  0  0  0  0  0  0  0  0
   -9.8540  -35.8870   14.3260 O   0  0  0  0  0  0  0  0  0  0  0  0
  -12.7650  -35.8090   14.8260 O   0  0  0  0  0  0  0  0  0  0  0  0
  -11.5940  -31.0270    7.8010 O   0  0  0  0  0  0  0  0  0  0  0  0
   -8.0120  -35.1200    8.4140 O   0  0  0  0  0  0  0  0  0  0  0  0
  -13.4680  -33.7360   12.7680 O   0  0  0  0  0  0  0  0  0  0  0  0
  -13.9100  -30.5740    8.6540 O   0  0  0  0  0  0  0  0  0  0  0  0
  -10.5490  -33.3490   11.1300 C   0  0  3  0  0  0  0  0  0  0  0  0
  -11.9460  -30.4630   10.1660 O   0  0  0  0  0  0  0  0  0  0  0  0
   -6.0250  -34.5210   11.2360 N   0  0  0  0  0  0  0  0  0  0  0  0
  -11.7750  -36.3940   12.7870 O   0  0  0  0  0  0  0  0  0  0  0  0
   -9.4660  -33.4330   12.1980 C   0  0  0  0  0  0  0  0  0  0  0  0
   -6.0410  -34.4680    9.7790 C   0  0  0  0  0  0  0  0  0  0  0  0
   -7.3970  -34.0480    9.1420 C   0  0  3  0  0  0  0  0  0  0  0  0
  -12.5420  -31.1180    8.9620 P   0  0  0  0  0  0  0  0  0  0  0  0
   -9.8800  -33.6420    9.7720 C   0  0  0  0  0  0  0  0  0  0  0  0
  -13.6200  -33.1370   10.3780 C   0  0  0  0  0  0  0  0  0  0  0  0
  -11.2510  -37.5090   15.3220 O   0  0  0  0  0  0  0  0  0  0  0  0
  -11.3570  -36.3370   14.3500 P   0  0  0  0  0  0  0  0  0  0  0  0
   -5.1060  -33.5170    9.4100 O   0  0  0  0  0  0  0  0  0  0  0  0
  -11.6600  -34.2410   11.4780 N   0  0  0  0  0  0  0  0  0  0  0  0
  -11.6500  -34.9450   14.9810 O   0  0  0  0  0  0  0  0  0  0  0  0
  1 24  2  0  0  0  0
  2  4  1  0  0  0  0
  2 21  1  0  0  0  0
  2 23  1  0  0  0  0
  3 22  1  0  0  0  0
  3 24  1  0  0  0  0
  4  8  1  0  0  0  0
  4 19  1  0  0  0  0
  5 13  2  0  0  0  0
  5 24  1  0  0  0  0
  5 28  1  0  0  0  0
  6 18  1  0  0  0  0
  6 28  1  0  0  0  0
  7 20  1  0  0  0  0
  8 17  1  0  0  0  0
  9 26  1  0  0  0  0
 10 26  1  0  0  0  0
 10 29  1  0  0  0  0
 11 22  2  0  0  0  0
 12 21  1  0  0  0  0
 14 22  1  0  0  0  0
 15 19  1  0  0  0  0
 15 23  1  0  0  0  0
 15 28  1  0  0  0  0
 16 22  1  0  0  0  0
 17 20  1  0  0  0  0
 18 26  1  0  0  0  0
 20 21  1  0  0  0  0
 20 27  1  0  0  0  0
 25 26  1  0  0  0  0
 26 29  1  0  0  0  0
M  END
>  <Original_Directory>
2trs_B_rec_4kkx_aq3_lig_tt_min_0_pocket10

>  <Original_Filename>
2trs_B_rec_4kkx_aq3_lig_tt_min_0_pocket10_gen_sample_11.sdf

>  <Molecule_ID>
sample_11

>  <logS>
1.40469

$$$$