/tmp/tmpp9d6udjo
  MOE2022           3D

 28 32  0  0  1  0  0  0  0  0999 V2000
   12.2510   18.0020   -6.0320 C   0  0  0  0  0  0  0  0  0  0  0  0
   11.3020   14.8970  -12.7660 C   0  0  0  0  0  0  0  0  0  0  0  0
    7.6880   14.1710  -12.7930 N   0  0  0  0  0  0  0  0  0  0  0  0
   10.0500   14.5070  -12.3120 C   0  0  0  0  0  0  0  0  0  0  0  0
   11.4100   18.1620   -3.7780 C   0  0  0  0  0  0  0  0  0  0  0  0
   10.6980   17.1430   -7.8850 C   0  0  0  0  0  0  0  0  0  0  0  0
   12.8400   17.8070   -9.1760 C   0  0  3  0  0  0  0  0  0  0  0  0
    6.8360   15.1850  -14.8580 C   0  0  0  0  0  0  0  0  0  0  0  0
   11.4990   15.9640   -9.9400 C   0  0  0  0  0  0  0  0  0  0  0  0
   10.5650   14.9740   -9.9440 C   0  0  0  0  0  0  0  0  0  0  0  0
   13.3980   17.2780  -10.5190 C   0  0  0  0  0  0  0  0  0  0  0  0
   11.9120   16.6770   -8.6880 C   0  0  3  0  0  0  0  0  0  0  0  0
    6.7640   14.8850  -13.5570 C   0  0  0  0  0  0  0  0  0  0  0  0
   12.2830   18.6060   -4.7750 C   0  0  0  0  0  0  0  0  0  0  0  0
   13.9860   17.7820   -8.1600 C   0  0  0  0  0  0  0  0  0  0  0  0
    9.5050   14.2030  -15.7760 C   0  0  0  0  0  0  0  0  0  0  0  0
   10.0610   17.1450   -5.4870 C   0  0  0  0  0  0  0  0  0  0  0  0
   13.5730   18.0260   -6.7350 C   0  0  0  0  0  0  0  0  0  0  0  0
    9.8050   14.4240  -10.9480 C   0  0  0  0  0  0  0  0  0  0  0  0
   12.3500   16.2850  -10.9790 C   0  0  0  0  0  0  0  0  0  0  0  0
    7.5520   15.6520  -15.8900 C   0  0  0  0  0  0  0  0  0  0  0  0
   13.1140   19.6600   -4.5810 O   0  0  0  0  0  0  0  0  0  0  0  0
    9.2660   13.7410  -14.5350 C   0  0  0  0  0  0  0  0  0  0  0  0
   12.2750   15.6930  -12.2070 C   0  0  0  0  0  0  0  0  0  0  0  0
    8.6230   15.0050  -16.5730 C   0  0  0  0  0  0  0  0  0  0  0  0
   11.0490   17.3990   -6.4410 C   0  0  0  0  0  0  0  0  0  0  0  0
    8.9660   14.1510  -13.2430 C   0  0  3  0  0  0  0  0  0  0  0  0
   10.3120   17.3830   -4.1390 C   0  0  0  0  0  0  0  0  0  0  0  0
  1 14  2  0  0  0  0
  1 18  1  0  0  0  0
  1 26  1  0  0  0  0
  2  4  2  0  0  0  0
  2 24  1  0  0  0  0
  3 13  1  0  0  0  0
  3 27  1  0  0  0  0
  4 19  1  0  0  0  0
  4 27  1  0  0  0  0
  5 14  1  0  0  0  0
  5 28  2  0  0  0  0
  6 12  1  0  0  0  0
  6 26  1  0  0  0  0
  7 11  1  0  0  0  0
  7 12  1  0  0  0  0
  7 15  1  0  0  0  0
  8 13  1  0  0  0  0
  8 21  1  0  0  0  0
  9 10  1  0  0  0  0
  9 12  1  0  0  0  0
  9 20  2  0  0  0  0
 10 19  2  0  0  0  0
 11 20  1  0  0  0  0
 14 22  1  0  0  0  0
 15 18  1  0  0  0  0
 16 23  1  0  0  0  0
 16 25  1  0  0  0  0
 17 26  2  0  0  0  0
 17 28  1  0  0  0  0
 20 24  1  0  0  0  0
 21 25  1  0  0  0  0
 23 27  1  0  0  0  0
M  END
>  <Original_Directory>
5d0c_A_rec_5coi_55k_lig_tt_docked_3_pocket10

>  <Original_Filename>
5d0c_A_rec_5coi_55k_lig_tt_docked_3_pocket10_gen_sample_13.sdf

>  <Molecule_ID>
sample_13

>  <logS>
-6.0029402

$$$$