/tmp/tmp3qgwjad_
  MOE2022           3D

 15 17  0  0  1  0  0  0  0  0999 V2000
    6.9850  -21.8990  -26.6430 C   0  0  0  0  0  0  0  0  0  0  0  0
    3.3770  -27.8550  -24.4560 C   0  0  0  0  0  0  0  0  0  0  0  0
    6.2980  -23.1440  -27.1770 C   0  0  0  0  0  0  0  0  0  0  0  0
    4.9600  -25.1560  -26.5400 C   0  0  0  0  0  0  0  0  0  0  0  0
    3.8550  -25.9140  -23.1070 C   0  0  0  0  0  0  0  0  0  0  0  0
    5.9730  -24.6370  -23.7820 C   0  0  0  0  0  0  0  0  0  0  0  0
    4.6040  -26.0090  -25.3600 C   0  0  0  0  0  0  0  0  0  0  0  0
    7.5640  -23.2660  -24.6820 N   0  0  0  0  0  0  0  0  0  0  0  0
    9.0540  -22.8450  -26.3200 F   0  0  0  0  0  0  0  0  0  0  0  0
    3.1300  -27.0970  -23.3150 C   0  0  0  0  0  0  0  0  0  0  0  0
    5.6040  -23.8590  -26.0180 C   0  0  3  0  0  0  0  0  0  0  0  0
    4.7900  -25.5150  -24.0600 C   0  0  0  0  0  0  0  0  0  0  0  0
    6.6780  -24.3210  -25.0590 N   0  0  0  0  0  0  0  0  0  0  0  0
    4.1830  -27.3300  -25.4650 C   0  0  0  0  0  0  0  0  0  0  0  0
    8.0300  -22.2680  -25.6090 C   0  0  3  0  0  0  0  0  0  0  0  0
  1  3  1  0  0  0  0
  1 15  1  0  0  0  0
  2 10  2  0  0  0  0
  2 14  1  0  0  0  0
  3 11  1  0  0  0  0
  4  7  1  0  0  0  0
  4 11  1  0  0  0  0
  5 10  1  0  0  0  0
  5 12  2  0  0  0  0
  6 12  1  0  0  0  0
  6 13  1  0  0  0  0
  7 12  1  0  0  0  0
  7 14  2  0  0  0  0
  8 13  1  0  0  0  0
  8 15  1  0  0  0  0
  9 15  1  0  0  0  0
 11 13  1  0  0  0  0
M  END
>  <Original_Directory>
4xew_B_rec_4xew_plp_lig_tt_docked_7_pocket10

>  <Original_Filename>
4xew_B_rec_4xew_plp_lig_tt_docked_7_pocket10_gen_sample_19.sdf

>  <Molecule_ID>
sample_19

>  <logS>
-1.6573499

$$$$