/tmp/tmpkwi9mf32
  MOE2022           3D

 17 19  0  0  1  0  0  0  0  0999 V2000
   18.2410  -26.1010   -4.6600 C   0  0  0  0  0  0  0  0  0  0  0  0
   15.9090  -23.5480   -1.4520 C   0  0  0  0  0  0  0  0  0  0  0  0
   15.7010  -27.7400   -8.0130 N   0  0  0  0  0  0  0  0  0  0  0  0
   16.7760  -24.1760   -0.3690 C   0  0  3  0  0  0  0  0  0  0  0  0
   16.9710  -27.6660   -7.5140 C   0  0  0  0  0  0  0  0  0  0  0  0
   14.8200  -27.6240   -6.9980 C   0  0  0  0  0  0  0  0  0  0  0  0
   17.1240  -25.5600   -0.9610 C   0  0  0  0  0  0  0  0  0  0  0  0
   18.5120  -22.5700   -1.4860 C   0  0  0  0  0  0  0  0  0  0  0  0
   17.9220  -27.3370   -5.1880 N   0  0  0  0  0  0  0  0  0  0  0  0
   18.2720  -26.0050   -3.1450 C   0  0  0  0  0  0  0  0  0  0  0  0
   16.6770  -23.9420   -2.7270 C   0  0  3  0  0  0  0  0  0  0  0  0
   16.8670  -27.4840   -6.1450 C   0  0  0  0  0  0  0  0  0  0  0  0
   17.0080  -25.4300   -2.4850 C   0  0  3  0  0  0  0  0  0  0  0  0
   18.0830  -23.3600   -0.2400 C   0  0  0  0  0  0  0  0  0  0  0  0
   18.4230  -25.1240   -5.3780 O   0  0  0  0  0  0  0  0  0  0  0  0
   17.9280  -23.0330   -2.8330 C   0  0  0  0  0  0  0  0  0  0  0  0
   15.5140  -27.5220   -5.8130 C   0  0  0  0  0  0  0  0  0  0  0  0
  1  9  1  0  0  0  0
  1 10  1  0  0  0  0
  1 15  2  0  0  0  0
  2  4  1  0  0  0  0
  2 11  1  0  0  0  0
  3  5  2  0  0  0  0
  3  6  1  0  0  0  0
  4  7  1  0  0  0  0
  4 14  1  0  0  0  0
  5 12  1  0  0  0  0
  6 17  1  0  0  0  0
  7 13  1  0  0  0  0
  8 14  1  0  0  0  0
  8 16  1  0  0  0  0
  9 12  1  0  0  0  0
 10 13  1  0  0  0  0
 11 13  1  0  0  0  0
 11 16  1  0  0  0  0
 12 17  2  0  0  0  0
M  END
>  <Original_Directory>
4bnk_B_rec_4bnf_pv4_lig_tt_docked_3_pocket10

>  <Original_Filename>
4bnk_B_rec_4bnf_pv4_lig_tt_docked_3_pocket10_gen_sample_11.sdf

>  <Molecule_ID>
sample_11

>  <logS>
-4.22223

$$$$