/tmp/tmpixem1wso
  MOE2022           3D

 30 36  0  0  1  0  0  0  0  0999 V2000
  -25.3750   -9.2470   -7.0590 C   0  0  0  0  0  0  0  0  0  0  0  0
  -26.6530  -12.0740   -5.2750 C   0  0  0  0  0  0  0  0  0  0  0  0
  -33.2010  -15.0100   -2.2910 N   0  0  0  0  0  0  0  0  0  0  0  0
  -28.0220  -13.4190   -3.8390 C   0  0  0  0  0  0  0  0  0  0  0  0
  -31.4910  -16.9800   -1.3320 C   0  0  0  0  0  0  0  0  0  0  0  0
  -30.2470  -13.9880   -4.3300 C   0  0  0  0  0  0  0  0  0  0  0  0
  -26.4010  -11.0460   -6.2480 C   0  0  0  0  0  0  0  0  0  0  0  0
  -31.9350  -15.1480   -2.8450 C   0  0  3  0  0  0  0  0  0  0  0  0
  -29.1290  -12.2420   -5.6200 O   0  0  0  0  0  0  0  0  0  0  0  0
  -29.0160  -14.4180   -3.8450 C   0  0  0  0  0  0  0  0  0  0  0  0
  -33.7120  -13.6180   -2.2790 C   0  0  0  0  0  0  0  0  0  0  0  0
  -26.0480   -9.6810   -5.9040 C   0  0  0  0  0  0  0  0  0  0  0  0
  -32.6220  -16.6260   -0.5970 C   0  0  0  0  0  0  0  0  0  0  0  0
  -25.5770  -12.3750   -4.4210 C   0  0  0  0  0  0  0  0  0  0  0  0
  -24.9250  -12.4980   -2.1470 O   0  0  0  0  0  0  0  0  0  0  0  0
  -24.5770   -8.1240   -7.4800 C   0  0  0  0  0  0  0  0  0  0  0  0
  -30.2850  -12.8420   -5.1810 C   0  0  0  0  0  0  0  0  0  0  0  0
  -25.3000   -9.5050   -9.4020 C   0  0  0  0  0  0  0  0  0  0  0  0
  -27.1140  -13.2400   -2.7820 C   0  0  0  0  0  0  0  0  0  0  0  0
  -24.5190   -8.2460   -9.0080 C   0  0  0  0  0  0  0  0  0  0  0  0
  -31.1510  -16.2460   -2.4710 C   0  0  0  0  0  0  0  0  0  0  0  0
  -25.4430  -10.1980   -8.1200 C   0  0  0  0  0  0  0  0  0  0  0  0
  -31.5450  -14.2410   -3.8490 C   0  0  3  0  0  0  0  0  0  0  0  0
  -32.4280  -13.2930   -4.3920 C   0  0  0  0  0  0  0  0  0  0  0  0
  -31.6940  -12.3490   -5.2990 C   0  0  0  0  0  0  0  0  0  0  0  0
  -33.7080  -12.9850   -3.6700 C   0  0  0  0  0  0  0  0  0  0  0  0
  -33.4840  -15.6500   -1.1150 C   0  0  0  0  0  0  0  0  0  0  0  0
  -25.8620  -12.7120   -3.0960 C   0  0  0  0  0  0  0  0  0  0  0  0
  -26.0070  -11.4540   -7.6340 C   0  0  0  0  0  0  0  0  0  0  0  0
  -27.9490  -12.5230   -4.9280 C   0  0  0  0  0  0  0  0  0  0  0  0
  1 12  1  0  0  0  0
  1 16  1  0  0  0  0
  1 22  2  0  0  0  0
  2  7  1  0  0  0  0
  2 14  1  0  0  0  0
  2 30  2  0  0  0  0
  3  8  1  0  0  0  0
  3 11  1  0  0  0  0
  3 27  1  0  0  0  0
  4 10  1  0  0  0  0
  4 19  2  0  0  0  0
  4 30  1  0  0  0  0
  5 13  1  0  0  0  0
  5 21  2  0  0  0  0
  6 10  1  0  0  0  0
  6 17  2  0  0  0  0
  6 23  1  0  0  0  0
  7 12  1  0  0  0  0
  7 29  2  0  0  0  0
  8 21  1  0  0  0  0
  8 23  1  0  0  0  0
  9 17  1  0  0  0  0
  9 30  1  0  0  0  0
 11 26  1  0  0  0  0
 13 27  2  0  0  0  0
 14 28  2  0  0  0  0
 15 28  1  0  0  0  0
 16 20  1  0  0  0  0
 17 25  1  0  0  0  0
 18 20  1  0  0  0  0
 18 22  1  0  0  0  0
 19 28  1  0  0  0  0
 22 29  1  0  0  0  0
 23 24  1  0  0  0  0
 24 25  2  0  0  0  0
 24 26  1  0  0  0  0
M  END
>  <Original_Directory>
3nfa_A_rec_4cgg_k5q_lig_tt_docked_2_pocket10

>  <Original_Filename>
3nfa_A_rec_4cgg_k5q_lig_tt_docked_2_pocket10_gen_sample_9.sdf

>  <Molecule_ID>
sample_9

>  <logS>
-5.84794

$$$$