/tmp/tmp_ksn4_nc
  MOE2022           3D

 31 35  0  0  1  0  0  0  0  0999 V2000
   19.0230    3.9360   15.1320 N   0  0  0  0  0  0  0  0  0  0  0  0
   19.9030    1.5390    8.8970 O   0  0  0  0  0  0  0  0  0  0  0  0
   16.1870    4.7440   11.7490 C   0  0  0  0  0  0  0  0  0  0  0  0
   18.3860    1.1070   16.8430 O   0  0  0  0  0  0  0  0  0  0  0  0
   14.0430    5.8390   11.5420 C   0  0  0  0  0  0  0  0  0  0  0  0
   19.3630    2.4680    9.4720 C   0  0  0  0  0  0  0  0  0  0  0  0
   21.3440    1.1030   11.3850 C   0  0  0  0  0  0  0  0  0  0  0  0
   16.8690    1.7010   15.1290 C   0  0  0  0  0  0  0  0  0  0  0  0
   19.7880    2.2700   12.8520 C   0  0  0  0  0  0  0  0  0  0  0  0
   20.9830    1.0200   14.5610 C   0  0  0  0  0  0  0  0  0  0  0  0
   16.4190    2.6520   14.2470 C   0  0  0  0  0  0  0  0  0  0  0  0
   22.0780    0.4110   12.3590 C   0  0  3  0  0  0  0  0  0  0  0  0
   15.1350    5.9520   15.0200 O   0  0  0  0  0  0  0  0  0  0  0  0
   19.1090    2.5810   15.0560 C   0  0  3  0  0  0  0  0  0  0  0  0
   17.4320    4.4030   11.0190 C   0  0  0  0  0  0  0  0  0  0  0  0
   15.0550    5.0680   10.9830 C   0  0  0  0  0  0  0  0  0  0  0  0
   20.3900    2.0900   11.6350 C   0  0  0  0  0  0  0  0  0  0  0  0
   19.9300    2.9960   10.6260 N   0  0  0  0  0  0  0  0  0  0  0  0
   18.1270    1.7720   15.6860 C   0  0  0  0  0  0  0  0  0  0  0  0
   15.1040    5.6500   13.6870 C   0  0  0  0  0  0  0  0  0  0  0  0
   19.8530    4.4320   10.9000 C   0  0  0  0  0  0  0  0  0  0  0  0
   21.7560    0.2720   13.7100 C   0  0  0  0  0  0  0  0  0  0  0  0
   17.3100    3.7250    9.8000 C   0  0  0  0  0  0  0  0  0  0  0  0
   14.0950    6.1780   12.8890 C   0  0  0  0  0  0  0  0  0  0  0  0
   18.5950    4.8410   11.5140 N   0  0  0  0  0  0  0  0  0  0  0  0
   18.1380    3.0700    8.9900 C   0  0  0  0  0  0  0  0  0  0  0  0
   16.0700    4.7910   13.1440 C   0  0  0  0  0  0  0  0  0  0  0  0
   20.0140    1.9490   14.1610 C   0  0  0  0  0  0  0  0  0  0  0  0
   16.8360    3.9640   14.0350 C   0  0  0  0  0  0  0  0  0  0  0  0
   23.2340   -0.1720   11.9260 O   0  0  0  0  0  0  0  0  0  0  0  0
   17.9150    4.5590   14.7040 C   0  0  0  0  0  0  0  0  0  0  0  0
  1 14  1  0  0  0  0
  1 31  2  0  0  0  0
  2  6  2  0  0  0  0
  3 15  1  0  0  0  0
  3 16  1  0  0  0  0
  3 27  2  0  0  0  0
  4 19  1  0  0  0  0
  5 16  2  0  0  0  0
  5 24  1  0  0  0  0
  6 18  1  0  0  0  0
  6 26  1  0  0  0  0
  7 12  1  0  0  0  0
  7 17  2  0  0  0  0
  8 11  1  0  0  0  0
  8 19  2  0  0  0  0
  9 17  1  0  0  0  0
  9 28  2  0  0  0  0
 10 22  2  0  0  0  0
 10 28  1  0  0  0  0
 11 29  2  0  0  0  0
 12 22  1  0  0  0  0
 12 30  1  0  0  0  0
 13 20  1  0  0  0  0
 14 19  1  0  0  0  0
 14 28  1  0  0  0  0
 15 23  1  0  0  0  0
 15 25  2  0  0  0  0
 17 18  1  0  0  0  0
 18 21  1  0  0  0  0
 20 24  2  0  0  0  0
 20 27  1  0  0  0  0
 21 25  1  0  0  0  0
 23 26  1  0  0  0  0
 27 29  1  0  0  0  0
 29 31  1  0  0  0  0
M  END
>  <Original_Directory>
4nh1_A_rec_5cvf_atp_lig_tt_docked_12_pocket10

>  <Original_Filename>
4nh1_A_rec_5cvf_atp_lig_tt_docked_12_pocket10_gen_sample_19.sdf

>  <Molecule_ID>
sample_19

>  <logS>
-3.74014

$$$$