/tmp/tmp9ne6pyy4
  MOE2022           3D

 19 21  0  0  1  0  0  0  0  0999 V2000
   44.1440    8.4350  -28.2810 C   0  0  0  0  0  0  0  0  0  0  0  0
   41.3140    9.1180  -27.4280 C   0  0  3  0  0  0  0  0  0  0  0  0
   41.4830    9.9010  -25.2450 N   0  0  0  0  0  0  0  0  0  0  0  0
   40.3910   10.3220  -27.2550 C   0  0  0  0  0  0  0  0  0  0  0  0
   41.2030   11.0620  -23.0030 C   0  0  1  0  0  0  0  0  0  0  0  0
   44.3820    8.1600  -26.9520 C   0  0  0  0  0  0  0  0  0  0  0  0
   39.7730   11.0540  -23.3170 C   0  0  0  0  0  0  0  0  0  0  0  0
   41.4730   10.4430  -21.6750 C   0  0  0  0  0  0  0  0  0  0  0  0
   43.2200   10.3840  -23.9960 O   0  0  0  0  0  0  0  0  0  0  0  0
   42.3430    9.4880  -26.3600 C   0  0  3  0  0  0  0  0  0  0  0  0
   42.0070   10.4020  -24.1220 C   0  0  0  0  0  0  0  0  0  0  0  0
   39.1800   10.8440  -20.9980 C   0  0  0  0  0  0  0  0  0  0  0  0
   40.4520   10.3690  -20.7280 C   0  0  0  0  0  0  0  0  0  0  0  0
   40.1620   10.2170  -25.7550 C   0  0  0  0  0  0  0  0  0  0  0  0
   41.9340    9.3350  -28.8230 C   0  0  0  0  0  0  0  0  0  0  0  0
   41.6950   12.4930  -22.9170 C   0  0  0  0  0  0  0  0  0  0  0  0
   38.8140   11.0920  -22.3070 C   0  0  0  0  0  0  0  0  0  0  0  0
   43.0620    8.4020  -29.0240 C   0  0  0  0  0  0  0  0  0  0  0  0
   43.2770    8.3460  -25.9380 C   0  0  0  0  0  0  0  0  0  0  0  0
  1  6  1  0  0  0  0
  1 18  1  0  0  0  0
  2  4  1  0  0  0  0
  2 10  1  0  0  0  0
  2 15  1  0  0  0  0
  3 10  1  0  0  0  0
  3 11  1  0  0  0  0
  3 14  1  0  0  0  0
  4 14  1  0  0  0  0
  5  7  1  0  0  0  0
  5  8  1  0  0  0  0
  5 11  1  0  0  0  0
  5 16  1  0  0  0  0
  6 19  1  0  0  0  0
  7 17  1  0  0  0  0
  8 13  2  0  0  0  0
  9 11  2  0  0  0  0
 10 19  1  0  0  0  0
 12 13  1  0  0  0  0
 12 17  2  0  0  0  0
 15 18  1  0  0  0  0
M  END
>  <Original_Directory>
1rqp_A_rec_2v7v_5fd_lig_tt_docked_0_pocket10

>  <Original_Filename>
1rqp_A_rec_2v7v_5fd_lig_tt_docked_0_pocket10_gen_sample_4.sdf

>  <Molecule_ID>
sample_4

>  <logS>
-2.8692999

$$$$