/tmp/tmpej6o4k_e
  MOE2022           3D

 32 35  0  0  1  0  0  0  0  0999 V2000
  -21.3300   86.9350  -63.8690 C   0  0  0  0  0  0  0  0  0  0  0  0
  -29.1240   89.6420  -60.3900 O   0  0  0  0  0  0  0  0  0  0  0  0
  -28.5710   91.0300  -62.2470 C   0  0  3  0  0  0  0  0  0  0  0  0
  -21.9070   90.5240  -61.1110 C   0  0  0  0  0  0  0  0  0  0  0  0
  -25.8970   93.8150  -59.8650 O   0  0  0  0  0  0  0  0  0  0  0  0
  -30.4560   92.2850  -61.7210 C   0  0  0  0  0  0  0  0  0  0  0  0
  -21.2430   88.6820  -62.4760 C   0  0  0  0  0  0  0  0  0  0  0  0
  -26.1390   93.7290  -61.3440 P   0  0  0  0  0  0  0  0  0  0  0  0
  -27.4290   94.3930  -61.6970 O   0  0  0  0  0  0  0  0  0  0  0  0
  -24.3600   90.7010  -60.5260 C   0  0  0  0  0  0  0  0  0  0  0  0
  -20.6340   87.5260  -62.8820 N   0  0  0  0  0  0  0  0  0  0  0  0
  -24.1610   90.7190  -59.3160 O   0  0  0  0  0  0  0  0  0  0  0  0
  -29.6770   91.7930  -62.7430 O   0  0  0  0  0  0  0  0  0  0  0  0
  -23.5420   89.4540  -62.5310 C   0  0  0  0  0  0  0  0  0  0  0  0
  -31.5320   92.8100  -61.8770 O   0  0  0  0  0  0  0  0  0  0  0  0
  -25.6370   91.0450  -61.0650 C   0  0  0  0  0  0  0  0  0  0  0  0
  -24.9950   94.3340  -62.1000 O   0  0  0  0  0  0  0  0  0  0  0  0
  -28.7100   90.9590  -60.7230 C   0  0  3  0  0  0  0  0  0  0  0  0
  -19.6460   86.6940  -62.5050 C   0  0  0  0  0  0  0  0  0  0  0  0
  -22.5280   87.6360  -64.0630 C   0  0  0  0  0  0  0  0  0  0  0  0
  -20.9070   84.7040  -66.2760 O   0  0  0  0  0  0  0  0  0  0  0  0
  -20.9090   89.6930  -61.5950 C   0  0  0  0  0  0  0  0  0  0  0  0
  -23.2350   90.2300  -61.4070 C   0  0  0  0  0  0  0  0  0  0  0  0
  -30.7300   91.4700  -59.4770 O   0  0  0  0  0  0  0  0  0  0  0  0
  -29.7820   92.0170  -60.3960 C   0  0  3  0  0  0  0  0  0  0  0  0
  -19.5430   85.7420  -63.4520 N   0  0  0  0  0  0  0  0  0  0  0  0
  -26.2500   92.0110  -61.7360 C   0  0  3  0  0  0  0  0  0  0  0  0
  -27.2770   91.6290  -62.7760 C   0  0  0  0  0  0  0  0  0  0  0  0
  -20.3560   85.7230  -65.8140 C   0  0  0  0  0  0  0  0  0  0  0  0
  -20.5100   85.9850  -64.3930 C   0  0  3  0  0  0  0  0  0  0  0  0
  -19.6160   86.4700  -66.4380 O   0  0  0  0  0  0  0  0  0  0  0  0
  -22.5130   88.7060  -63.1150 C   0  0  0  0  0  0  0  0  0  0  0  0
  1 11  1  0  0  0  0
  1 20  2  0  0  0  0
  1 30  1  0  0  0  0
  2 18  1  0  0  0  0
  3 13  1  0  0  0  0
  3 18  1  0  0  0  0
  3 28  1  0  0  0  0
  4 22  2  0  0  0  0
  4 23  1  0  0  0  0
  5  8  1  0  0  0  0
  6 13  1  0  0  0  0
  6 15  2  0  0  0  0
  6 25  1  0  0  0  0
  7 11  1  0  0  0  0
  7 22  1  0  0  0  0
  7 32  2  0  0  0  0
  8  9  1  0  0  0  0
  8 17  2  0  0  0  0
  8 27  1  0  0  0  0
 10 12  2  0  0  0  0
 10 16  1  0  0  0  0
 10 23  1  0  0  0  0
 11 19  1  0  0  0  0
 14 23  2  0  0  0  0
 14 32  1  0  0  0  0
 16 27  1  0  0  0  0
 18 25  1  0  0  0  0
 19 26  1  0  0  0  0
 20 32  1  0  0  0  0
 21 29  1  0  0  0  0
 24 25  1  0  0  0  0
 26 30  1  0  0  0  0
 27 28  1  0  0  0  0
 29 30  1  0  0  0  0
 29 31  2  0  0  0  0
M  END
>  <Original_Directory>
1xtq_A_rec_1xts_gtp_lig_tt_docked_1_pocket10

>  <Original_Filename>
1xtq_A_rec_1xts_gtp_lig_tt_docked_1_pocket10_gen_sample_11.sdf

>  <Molecule_ID>
sample_11

>  <logS>
-1.1834

$$$$