/tmp/tmpd5r9s3kc
  MOE2022           3D

 32 34  0  0  1  0  0  0  0  0999 V2000
  -23.2050   89.4310  -60.6310 C   0  0  0  0  0  0  0  0  0  0  0  0
  -31.2290   93.2790  -62.4030 C   0  0  0  0  0  0  0  0  0  0  0  0
  -19.6040   86.4120  -62.7180 C   0  0  0  0  0  0  0  0  0  0  0  0
  -30.8570   91.5520  -59.2760 O   0  0  0  0  0  0  0  0  0  0  0  0
  -22.8970   87.5500  -63.7830 N   0  0  0  0  0  0  0  0  0  0  0  0
  -28.6200   90.5950  -62.5860 O   0  0  0  0  0  0  0  0  0  0  0  0
  -26.8990   92.1330  -59.7450 C   0  0  0  0  0  0  0  0  0  0  0  0
  -31.3200   92.0050  -63.0260 O   0  0  0  0  0  0  0  0  0  0  0  0
  -21.2990   86.1180  -64.9860 C   0  0  3  0  0  0  0  0  0  0  0  0
  -21.7100   87.3280  -64.4000 C   0  0  3  0  0  0  0  0  0  0  0  0
  -23.6200   91.7650  -61.5210 C   0  0  0  0  0  0  0  0  0  0  0  0
  -29.0550   89.4580  -60.7550 O   0  0  0  0  0  0  0  0  0  0  0  0
  -27.9240   92.5680  -60.5830 C   0  0  0  0  0  0  0  0  0  0  0  0
  -20.4880   87.5020  -62.7390 C   0  0  0  0  0  0  0  0  0  0  0  0
  -28.9090   90.5330  -61.3690 C   0  0  0  0  0  0  0  0  0  0  0  0
  -27.8160   93.6890  -61.3520 N   0  0  0  0  0  0  0  0  0  0  0  0
  -19.2050   85.7360  -63.8580 C   0  0  0  0  0  0  0  0  0  0  0  0
  -23.8320   88.5080  -61.6720 C   0  0  0  0  0  0  0  0  0  0  0  0
  -32.3010   93.5820  -60.2950 O   0  0  0  0  0  0  0  0  0  0  0  0
  -22.7420   87.8520  -62.5000 C   0  0  0  0  0  0  0  0  0  0  0  0
  -25.5890   91.8560  -60.0360 C   0  0  0  0  0  0  0  0  0  0  0  0
  -22.1640   85.1030  -65.1870 O   0  0  0  0  0  0  0  0  0  0  0  0
  -19.9590   85.7430  -65.0290 C   0  0  0  0  0  0  0  0  0  0  0  0
  -22.8520   90.7400  -61.2510 C   0  0  0  0  0  0  0  0  0  0  0  0
  -29.0650   91.7440  -60.7260 N   0  0  0  0  0  0  0  0  0  0  0  0
  -21.5790   87.4900  -61.8840 O   0  0  0  0  0  0  0  0  0  0  0  0
  -30.3500   92.1030  -60.2260 C   0  0  0  0  0  0  0  0  0  0  0  0
  -25.4680   93.2740  -61.9870 C   0  0  0  0  0  0  0  0  0  0  0  0
  -31.0620   93.2590  -60.8990 C   0  0  3  0  0  0  0  0  0  0  0  0
  -26.6560   93.9410  -61.9630 C   0  0  0  0  0  0  0  0  0  0  0  0
  -24.9070   92.2960  -61.1660 C   0  0  0  0  0  0  0  0  0  0  0  0
  -20.7080   88.1560  -63.9160 N   0  0  0  0  0  0  0  0  0  0  0  0
  1 18  1  0  0  0  0
  1 24  1  0  0  0  0
  2  8  1  0  0  0  0
  2 29  1  0  0  0  0
  3 14  1  0  0  0  0
  3 17  1  0  0  0  0
  4 27  2  0  0  0  0
  5 10  1  0  0  0  0
  5 20  2  0  0  0  0
  6 15  2  0  0  0  0
  7 13  2  0  0  0  0
  7 21  1  0  0  0  0
  9 10  1  0  0  0  0
  9 22  1  0  0  0  0
  9 23  1  0  0  0  0
 10 32  1  0  0  0  0
 11 24  1  0  0  0  0
 11 31  1  0  0  0  0
 12 15  1  0  0  0  0
 13 16  1  0  0  0  0
 13 25  1  0  0  0  0
 14 26  1  0  0  0  0
 14 32  2  0  0  0  0
 15 25  1  0  0  0  0
 16 30  2  0  0  0  0
 17 23  1  0  0  0  0
 18 20  1  0  0  0  0
 19 29  1  0  0  0  0
 20 26  1  0  0  0  0
 21 31  1  0  0  0  0
 25 27  1  0  0  0  0
 27 29  1  0  0  0  0
 28 30  1  0  0  0  0
 28 31  2  0  0  0  0
M  END
>  <Original_Directory>
1xtq_A_rec_1xts_gtp_lig_tt_docked_1_pocket10

>  <Original_Filename>
1xtq_A_rec_1xts_gtp_lig_tt_docked_1_pocket10_gen_sample_5.sdf

>  <Molecule_ID>
sample_5

>  <logS>
-2.9655001

$$$$