/tmp/tmp62pwlf5a
  MOE2022           3D

 20 22  0  0  1  0  0  0  0  0999 V2000
  -16.0900  -12.4340   -0.5130 C   0  0  0  0  0  0  0  0  0  0  0  0
  -16.2730   -5.8100    0.6750 O   0  0  0  0  0  0  0  0  0  0  0  0
  -13.7320   -8.5120    0.9570 C   0  0  0  0  0  0  0  0  0  0  0  0
  -16.2840  -11.0260   -0.2090 N   0  0  0  0  0  0  0  0  0  0  0  0
  -11.9680  -12.5660    0.5690 C   0  0  0  0  0  0  0  0  0  0  0  0
  -14.6300  -12.6660   -0.0600 C   0  0  0  0  0  0  0  0  0  0  0  0
  -13.9950  -11.4120    0.0530 C   0  0  0  0  0  0  0  0  0  0  0  0
  -13.3700   -7.1520    1.0240 C   0  0  0  0  0  0  0  0  0  0  0  0
  -12.6720  -13.7640    0.4880 C   0  0  0  0  0  0  0  0  0  0  0  0
  -15.7620   -7.9570   -0.2180 C   0  0  0  0  0  0  0  0  0  0  0  0
  -17.5490  -10.4710    0.2700 C   0  0  0  0  0  0  0  0  0  0  0  0
  -14.0260   -6.1850    0.2460 C   0  0  0  0  0  0  0  0  0  0  0  0
  -15.0030  -10.3430   -0.2820 C   0  0  3  0  0  0  0  0  0  0  0  0
  -14.8270   -8.9210    0.1780 C   0  0  3  0  0  0  0  0  0  0  0  0
  -16.9840  -13.1910    0.0960 O   0  0  0  0  0  0  0  0  0  0  0  0
  -12.6390  -11.3570    0.3460 C   0  0  0  0  0  0  0  0  0  0  0  0
  -15.6260   -5.9410   -1.4890 O   0  0  0  0  0  0  0  0  0  0  0  0
  -16.1820  -12.6340   -1.8280 O   0  0  0  0  0  0  0  0  0  0  0  0
  -15.4300   -6.4820   -0.1920 C   0  0  0  0  0  0  0  0  0  0  0  0
  -13.9970  -13.8280    0.2210 N   0  0  0  0  0  0  0  0  0  0  0  0
  1  4  1  0  0  0  0
  1  6  1  0  0  0  0
  1 15  1  0  0  0  0
  1 18  1  0  0  0  0
  2 19  1  0  0  0  0
  3  8  2  0  0  0  0
  3 14  1  0  0  0  0
  4 11  1  0  0  0  0
  4 13  1  0  0  0  0
  5  9  2  0  0  0  0
  5 16  1  0  0  0  0
  6  7  1  0  0  0  0
  6 20  2  0  0  0  0
  7 13  1  0  0  0  0
  7 16  2  0  0  0  0
  8 12  1  0  0  0  0
  9 20  1  0  0  0  0
 10 14  1  0  0  0  0
 10 19  1  0  0  0  0
 12 19  1  0  0  0  0
 13 14  1  0  0  0  0
 17 19  1  0  0  0  0
M  END
>  <Original_Directory>
2wr6_A_rec_2wq9_ola_lig_tt_min_0_pocket10

>  <Original_Filename>
2wr6_A_rec_2wq9_ola_lig_tt_min_0_pocket10_gen_sample_9.sdf

>  <Molecule_ID>
sample_9

>  <logS>
-0.12605999

$$$$