/tmp/tmpmvb8oyuw
  MOE2022           3D

 23 25  0  0  1  0  0  0  0  0999 V2000
   22.0370  -21.0930  -21.8740 C   0  0  0  0  0  0  0  0  0  0  0  0
   21.1770  -19.1530  -20.8090 C   0  0  0  0  0  0  0  0  0  0  0  0
   18.0660  -15.6760  -17.8240 N   0  0  0  0  0  0  0  0  0  0  0  0
   19.9330  -18.4220  -20.4250 C   0  0  0  0  0  0  0  0  0  0  0  0
   20.1910  -16.1520  -16.8080 C   0  0  0  0  0  0  0  0  0  0  0  0
   18.4000  -15.2810  -15.6070 O   0  0  0  0  0  0  0  0  0  0  0  0
   21.1860  -20.0050  -21.9020 C   0  0  0  0  0  0  0  0  0  0  0  0
   18.8230  -15.3440  -19.0140 C   0  0  3  0  0  0  0  0  0  0  0  0
   19.9190  -16.2960  -19.1630 C   0  0  3  0  0  0  0  0  0  0  0  0
   21.0010  -16.4190  -21.2690 O   0  0  0  0  0  0  0  0  0  0  0  0
   15.8910  -14.9740  -17.7540 O   0  0  0  0  0  0  0  0  0  0  0  0
   19.9040  -16.9130  -20.5160 C   0  0  1  0  0  0  0  0  0  0  0  0
   23.0610  -21.1460  -20.9440 C   0  0  0  0  0  0  0  0  0  0  0  0
   18.6490  -14.0330  -20.9090 O   0  0  0  0  0  0  0  0  0  0  0  0
   23.1820  -20.1380  -20.0070 C   0  0  0  0  0  0  0  0  0  0  0  0
   16.3240  -17.1220  -18.0190 O   0  0  0  0  0  0  0  0  0  0  0  0
   16.6920  -15.9400  -17.8440 C   0  0  0  0  0  0  0  0  0  0  0  0
   18.6180  -16.4250  -21.1740 C   0  0  0  0  0  0  0  0  0  0  0  0
   18.9780  -19.0450  -20.0220 O   0  0  0  0  0  0  0  0  0  0  0  0
   18.8610  -15.7020  -16.6680 C   0  0  0  0  0  0  0  0  0  0  0  0
   20.6920  -16.4780  -18.0650 C   0  0  0  0  0  0  0  0  0  0  0  0
   18.1370  -15.2410  -20.3510 C   0  0  3  0  0  0  0  0  0  0  0  0
   22.3160  -19.0630  -20.0270 C   0  0  0  0  0  0  0  0  0  0  0  0
  1  7  2  0  0  0  0
  1 13  1  0  0  0  0
  2  4  1  0  0  0  0
  2  7  1  0  0  0  0
  2 23  2  0  0  0  0
  3  8  1  0  0  0  0
  3 17  1  0  0  0  0
  3 20  1  0  0  0  0
  4 12  1  0  0  0  0
  4 19  2  0  0  0  0
  5 20  1  0  0  0  0
  5 21  2  0  0  0  0
  6 20  2  0  0  0  0
  8  9  1  0  0  0  0
  8 22  1  0  0  0  0
  9 12  1  0  0  0  0
  9 21  1  0  0  0  0
 10 12  1  0  0  0  0
 11 17  1  0  0  0  0
 12 18  1  0  0  0  0
 13 15  2  0  0  0  0
 14 22  1  0  0  0  0
 15 23  1  0  0  0  0
 16 17  2  0  0  0  0
 18 22  1  0  0  0  0
M  END
>  <Original_Directory>
5k0m_A_rec_5u5h_7vv_lig_tt_min_0_pocket10

>  <Original_Filename>
5k0m_A_rec_5u5h_7vv_lig_tt_min_0_pocket10_gen_sample_10.sdf

>  <Molecule_ID>
sample_10

>  <logS>
-2.16484

$$$$