/tmp/tmp20pmelgx
  MOE2022           3D

 26 30  0  0  1  0  0  0  0  0999 V2000
    0.8500    3.3640   34.2050 N   0  0  0  0  0  0  0  0  0  0  0  0
    1.8830    7.6310   30.4110 C   0  0  0  0  0  0  0  0  0  0  0  0
    3.9770    4.6410   38.0030 C   0  0  0  0  0  0  0  0  0  0  0  0
    2.3000    6.9780   29.2970 O   0  0  0  0  0  0  0  0  0  0  0  0
    1.4640    3.7950   37.2310 C   0  0  0  0  0  0  0  0  0  0  0  0
    0.1560    3.7420   35.2800 C   0  0  3  0  0  0  0  0  0  0  0  0
    1.0600    4.5200   33.5790 C   0  0  0  0  0  0  0  0  0  0  0  0
    3.0480    5.5690   37.5800 C   0  0  0  0  0  0  0  0  0  0  0  0
    1.8920    9.0140   30.5160 C   0  0  0  0  0  0  0  0  0  0  0  0
   -0.0530    6.6760   33.4060 C   0  0  0  0  0  0  0  0  0  0  0  0
    3.6150    3.3020   38.1720 C   0  0  0  0  0  0  0  0  0  0  0  0
    1.5150    6.8930   31.5420 C   0  0  0  0  0  0  0  0  0  0  0  0
    0.2960    8.8000   32.3340 C   0  0  0  0  0  0  0  0  0  0  0  0
    1.7010    1.7040   38.5330 C   0  0  0  0  0  0  0  0  0  0  0  0
    2.1220    4.7900   32.7620 C   0  0  0  0  0  0  0  0  0  0  0  0
    0.0370    1.8290   36.7030 C   0  0  0  0  0  0  0  0  0  0  0  0
    2.2590    2.9630   38.0090 C   0  0  0  0  0  0  0  0  0  0  0  0
   -0.5700    4.8610   35.0160 C   0  0  0  0  0  0  0  0  0  0  0  0
    0.4580    3.2170   36.4690 N   0  0  0  0  0  0  0  0  0  0  0  0
    2.2090    5.7290   31.7900 C   0  0  0  0  0  0  0  0  0  0  0  0
    0.5340    1.2430   37.9330 N   0  0  0  0  0  0  0  0  0  0  0  0
    1.0860    9.6000   31.5000 C   0  0  0  0  0  0  0  0  0  0  0  0
    0.1250    5.4310   33.9660 C   0  0  3  0  0  0  0  0  0  0  0  0
    1.7810    5.1520   37.1860 C   0  0  0  0  0  0  0  0  0  0  0  0
    1.9670    1.3070   39.6720 O   0  0  0  0  0  0  0  0  0  0  0  0
    0.5690    7.4320   32.4210 C   0  0  0  0  0  0  0  0  0  0  0  0
  1  6  1  0  0  0  0
  1  7  1  0  0  0  0
  2  4  1  0  0  0  0
  2  9  2  0  0  0  0
  2 12  1  0  0  0  0
  3  8  1  0  0  0  0
  3 11  2  0  0  0  0
  5 17  2  0  0  0  0
  5 19  1  0  0  0  0
  5 24  1  0  0  0  0
  6 18  1  0  0  0  0
  6 19  1  0  0  0  0
  7 15  2  0  0  0  0
  7 23  1  0  0  0  0
  8 24  2  0  0  0  0
  9 22  1  0  0  0  0
 10 23  1  0  0  0  0
 10 26  2  0  0  0  0
 11 17  1  0  0  0  0
 12 20  2  0  0  0  0
 12 26  1  0  0  0  0
 13 22  2  0  0  0  0
 13 26  1  0  0  0  0
 14 17  1  0  0  0  0
 14 21  1  0  0  0  0
 14 25  2  0  0  0  0
 15 20  1  0  0  0  0
 16 19  1  0  0  0  0
 16 21  1  0  0  0  0
 18 23  1  0  0  0  0
M  END
>  <Original_Directory>
2xae_A_rec_4a51_dq8_lig_tt_min_0_pocket10

>  <Original_Filename>
2xae_A_rec_4a51_dq8_lig_tt_min_0_pocket10_gen_sample_16.sdf

>  <Molecule_ID>
sample_16

>  <logS>
-3.65311

$$$$