/tmp/tmplw4qr517
  MOE2022           3D

 20 21  0  0  1  0  0  0  0  0999 V2000
  -29.4120   19.6030  -16.5450 O   0  0  0  0  0  0  0  0  0  0  0  0
  -28.7500   20.0690  -21.7740 C   0  0  0  0  0  0  0  0  0  0  0  0
  -28.4920   16.2410  -17.8240 O   0  0  0  0  0  0  0  0  0  0  0  0
  -34.4870   18.5830  -15.9570 C   0  0  0  0  0  0  0  0  0  0  0  0
  -31.0370   18.4000  -17.5760 N   0  0  0  0  0  0  0  0  0  0  0  0
  -27.6340   20.7420  -18.9550 C   0  0  0  0  0  0  0  0  0  0  0  0
  -29.7700   18.8870  -17.4860 C   0  0  0  0  0  0  0  0  0  0  0  0
  -28.2310   19.5290  -19.3850 C   0  0  0  0  0  0  0  0  0  0  0  0
  -34.0880   19.5550  -18.1930 C   0  0  0  0  0  0  0  0  0  0  0  0
  -28.6430   21.4550  -21.8280 C   0  0  0  0  0  0  0  0  0  0  0  0
  -32.1370   18.8350  -16.7210 C   0  0  0  0  0  0  0  0  0  0  0  0
  -28.2840   19.1720  -20.7830 C   0  0  3  0  0  0  0  0  0  0  0  0
  -27.6170   21.9660  -19.6160 C   0  0  0  0  0  0  0  0  0  0  0  0
  -28.4370   17.1950  -18.8100 C   0  0  0  0  0  0  0  0  0  0  0  0
  -33.6430   17.2670  -17.7910 O   0  0  0  0  0  0  0  0  0  0  0  0
  -33.5680   18.5460  -17.1760 C   0  0  0  0  0  0  0  0  0  0  0  0
  -28.0330   16.8490  -20.1090 C   0  0  0  0  0  0  0  0  0  0  0  0
  -27.9360   17.8420  -21.0960 C   0  0  0  0  0  0  0  0  0  0  0  0
  -28.7650   18.5410  -18.5160 C   0  0  0  0  0  0  0  0  0  0  0  0
  -28.1230   22.3240  -20.8610 C   0  0  0  0  0  0  0  0  0  0  0  0
  1  7  2  0  0  0  0
  2 10  2  0  0  0  0
  2 12  1  0  0  0  0
  3 14  1  0  0  0  0
  4 16  1  0  0  0  0
  5  7  1  0  0  0  0
  5 11  2  0  0  0  0
  6  8  2  0  0  0  0
  6 13  1  0  0  0  0
  7 19  1  0  0  0  0
  8 12  1  0  0  0  0
  8 19  1  0  0  0  0
  9 16  1  0  0  0  0
 10 20  1  0  0  0  0
 11 16  1  0  0  0  0
 12 18  1  0  0  0  0
 13 20  2  0  0  0  0
 14 17  1  0  0  0  0
 14 19  2  0  0  0  0
 15 16  1  0  0  0  0
 17 18  2  0  0  0  0
M  END
>  <Original_Directory>
5v8h_A_rec_5v8h_8zj_lig_tt_min_0_pocket10

>  <Original_Filename>
5v8h_A_rec_5v8h_8zj_lig_tt_min_0_pocket10_gen_sample_12.sdf

>  <Molecule_ID>
sample_12

>  <logS>
-3.1470201

$$$$