/tmp/tmpjzh0kc_2
  MOE2022           3D

 16 16  0  0  1  0  0  0  0  0999 V2000
   40.8710  102.1700   18.4080 O   0  0  0  0  0  0  0  0  0  0  0  0
   42.7680   95.8130   16.6550 C   0  0  0  0  0  0  0  0  0  0  0  0
   41.3560   95.7170   16.3250 N   0  0  0  0  0  0  0  0  0  0  0  0
   43.6030  100.3470   16.6250 O   0  0  0  0  0  0  0  0  0  0  0  0
   39.5200   94.4500   15.6850 O   0  0  0  0  0  0  0  0  0  0  0  0
   40.9440  100.9520   18.6950 C   0  0  0  0  0  0  0  0  0  0  0  0
   42.3250  100.3660   18.6800 C   0  0  0  0  0  0  0  0  0  0  0  0
   40.9370   95.3380   14.1020 O   0  0  0  0  0  0  0  0  0  0  0  0
   41.6030   93.6220   15.3980 O   0  0  0  0  0  0  0  0  0  0  0  0
   41.5610   97.8180   17.4660 C   0  0  3  0  0  0  0  0  0  0  0  0
   42.9340   97.1570   17.3700 C   0  0  0  0  0  0  0  0  0  0  0  0
   39.9430  100.2690   18.9120 O   0  0  0  0  0  0  0  0  0  0  0  0
   40.8170   94.7930   15.3210 C   0  0  0  0  0  0  0  0  0  0  0  0
   42.2790  100.2630   17.1670 C   0  0  3  0  0  0  0  0  0  0  0  0
   41.4840   99.0810   16.5840 C   0  0  0  0  0  0  0  0  0  0  0  0
   40.5780   96.8260   16.8360 C   0  0  0  0  0  0  0  0  0  0  0  0
  1  6  2  0  0  0  0
  2  3  1  0  0  0  0
  2 11  2  0  0  0  0
  3 13  1  0  0  0  0
  3 16  1  0  0  0  0
  4 14  1  0  0  0  0
  5 13  1  0  0  0  0
  6  7  1  0  0  0  0
  6 12  1  0  0  0  0
  7 14  1  0  0  0  0
  8 13  1  0  0  0  0
  9 13  1  0  0  0  0
 10 11  1  0  0  0  0
 10 15  1  0  0  0  0
 10 16  1  0  0  0  0
 14 15  1  0  0  0  0
M  END
>  <Original_Directory>
3ct7_A_rec_3ctl_s6p_lig_tt_min_0_pocket10

>  <Original_Filename>
3ct7_A_rec_3ctl_s6p_lig_tt_min_0_pocket10_gen_sample_9.sdf

>  <Molecule_ID>
sample_9

>  <logS>
0.89643002

$$$$