/tmp/tmpyryicl4m
  MOE2022           3D

 11 12  0  0  1  0  0  0  0  0999 V2000
   -4.3990  -10.1850   17.7080 O   0  0  0  0  0  0  0  0  0  0  0  0
   -4.7250   -7.6700   17.6020 O   0  0  0  0  0  0  0  0  0  0  0  0
   -4.5790   -8.9370   15.5240 O   0  0  0  0  0  0  0  0  0  0  0  0
   -1.3140   -9.6830   19.0510 C   0  0  0  0  0  0  0  0  0  0  0  0
   -3.2240  -12.4080   19.9000 O   0  0  0  0  0  0  0  0  0  0  0  0
   -1.8580  -10.5690   20.0040 O   0  0  0  0  0  0  0  0  0  0  0  0
   -1.9660  -10.0200   17.7170 C   0  0  3  0  0  0  0  0  0  0  0  0
   -3.1280  -11.0410   19.5970 C   0  0  3  0  0  0  0  0  0  0  0  0
   -3.1880  -10.8550   18.0800 C   0  0  3  0  0  0  0  0  0  0  0  0
   -4.0920   -8.8230   16.9160 P   0  0  2  0  0  0  0  0  0  0  0  0
   -2.4410   -8.7930   17.0430 N   0  0  0  0  0  0  0  0  0  0  0  0
  1  9  1  0  0  0  0
  1 10  1  0  0  0  0
  2 10  1  0  0  0  0
  3 10  2  0  0  0  0
  4  6  1  0  0  0  0
  4  7  1  0  0  0  0
  5  8  1  0  0  0  0
  6  8  1  0  0  0  0
  7  9  1  0  0  0  0
  7 11  1  0  0  0  0
  8  9  1  0  0  0  0
 10 11  1  0  0  0  0
M  END
>  <Original_Directory>
1woa_A_rec_2vfh_3pg_lig_tt_docked_3_pocket10

>  <Original_Filename>
1woa_A_rec_2vfh_3pg_lig_tt_docked_3_pocket10_gen_sample_9.sdf

>  <Molecule_ID>
sample_9

>  <logS>
0.91799998

$$$$