/tmp/tmpu31cxsvk
  MOE2022           3D

 26 29  0  0  1  0  0  0  0  0999 V2000
   -1.8290   11.4500   31.6060 C   0  0  0  0  0  0  0  0  0  0  0  0
    0.6350    6.0090   38.6160 O   0  0  0  0  0  0  0  0  0  0  0  0
   -0.6020    4.7850   37.0370 C   0  0  0  0  0  0  0  0  0  0  0  0
   -1.7250    9.3530   32.7990 C   0  0  0  0  0  0  0  0  0  0  0  0
    1.0600    6.4730   36.3330 C   0  0  0  0  0  0  0  0  0  0  0  0
   -0.7950    4.8980   34.5680 C   0  0  0  0  0  0  0  0  0  0  0  0
   -1.1730    7.0860   33.4610 C   0  0  0  0  0  0  0  0  0  0  0  0
    0.3450    5.7620   37.2980 C   0  0  3  0  0  0  0  0  0  0  0  0
   -3.5040    6.8720   32.7440 C   0  0  0  0  0  0  0  0  0  0  0  0
   -1.0160    4.3120   35.8030 C   0  0  0  0  0  0  0  0  0  0  0  0
    0.7510    6.6940   35.0040 C   0  0  0  0  0  0  0  0  0  0  0  0
   -5.5130    5.4800   33.0920 C   0  0  0  0  0  0  0  0  0  0  0  0
   -0.9030    8.4170   33.4120 O   0  0  0  0  0  0  0  0  0  0  0  0
   -0.3860    6.2160   34.3550 C   0  0  0  0  0  0  0  0  0  0  0  0
   -5.6520    4.8640   30.3910 C   0  0  0  0  0  0  0  0  0  0  0  0
   -3.8390    8.1150   33.2550 C   0  0  0  0  0  0  0  0  0  0  0  0
   -4.5250    5.9600   32.2380 C   0  0  0  0  0  0  0  0  0  0  0  0
   -3.1320    9.2500   32.7340 C   0  0  0  0  0  0  0  0  0  0  0  0
   -6.7270    4.5710   31.2150 C   0  0  0  0  0  0  0  0  0  0  0  0
   -0.4640    6.4960   39.3880 C   0  0  0  0  0  0  0  0  0  0  0  0
   -1.0830   10.4540   32.2360 C   0  0  0  0  0  0  0  0  0  0  0  0
   -3.8710   10.3110   32.1770 C   0  0  0  0  0  0  0  0  0  0  0  0
   -2.1340    6.5170   32.6300 C   0  0  0  0  0  0  0  0  0  0  0  0
   -6.6640    4.8930   32.5610 C   0  0  0  0  0  0  0  0  0  0  0  0
   -3.2130   11.4310   31.6670 C   0  0  0  0  0  0  0  0  0  0  0  0
   -4.5490    5.5670   30.8930 C   0  0  0  0  0  0  0  0  0  0  0  0
  1 21  2  0  0  0  0
  1 25  1  0  0  0  0
  2  8  1  0  0  0  0
  2 20  1  0  0  0  0
  3  8  1  0  0  0  0
  3 10  2  0  0  0  0
  4 13  1  0  0  0  0
  4 18  2  0  0  0  0
  4 21  1  0  0  0  0
  5  8  1  0  0  0  0
  5 11  2  0  0  0  0
  6 10  1  0  0  0  0
  6 14  2  0  0  0  0
  7 13  1  0  0  0  0
  7 14  1  0  0  0  0
  7 23  2  0  0  0  0
  9 16  2  0  0  0  0
  9 17  1  0  0  0  0
  9 23  1  0  0  0  0
 11 14  1  0  0  0  0
 12 17  1  0  0  0  0
 12 24  2  0  0  0  0
 15 19  2  0  0  0  0
 15 26  1  0  0  0  0
 16 18  1  0  0  0  0
 17 26  2  0  0  0  0
 18 22  1  0  0  0  0
 19 24  1  0  0  0  0
 22 25  2  0  0  0  0
M  END
>  <Original_Directory>
6ezq_A_rec_2xw0_9nf_lig_tt_min_0_pocket10

>  <Original_Filename>
6ezq_A_rec_2xw0_9nf_lig_tt_min_0_pocket10_gen_sample_19.sdf

>  <Molecule_ID>
sample_19

>  <logS>
-6.1393399

$$$$