/tmp/tmpj36z6tzw
  MOE2022           3D

 12 13  0  0  0  0  0  0  0  0999 V2000
   16.0480   21.7890   18.5190 C   0  0  0  0  0  0  0  0  0  0  0  0
   15.3570   22.3550   19.5730 C   0  0  0  0  0  0  0  0  0  0  0  0
   15.7890   20.4790   18.1260 C   0  0  0  0  0  0  0  0  0  0  0  0
   16.3110   17.6760   18.7780 C   0  0  0  0  0  0  0  0  0  0  0  0
   16.3190   20.0420   16.9470 N   0  0  0  0  0  0  0  0  0  0  0  0
   16.9880   17.2290   19.7180 O   0  0  0  0  0  0  0  0  0  0  0  0
   14.0490   20.3520   19.7680 C   0  0  0  0  0  0  0  0  0  0  0  0
   14.3250   21.6530   20.1660 C   0  0  0  0  0  0  0  0  0  0  0  0
   15.0720   18.2990   19.0600 C   0  0  0  0  0  0  0  0  0  0  0  0
   16.9010   17.8300   17.5640 N   0  0  0  0  0  0  0  0  0  0  0  0
   16.6210   18.7980   16.7120 C   0  0  0  0  0  0  0  0  0  0  0  0
   14.9580   19.6910   18.9390 C   0  0  0  0  0  0  0  0  0  0  0  0
  1  2  2  0  0  0  0
  1  3  1  0  0  0  0
  2  8  1  0  0  0  0
  3  5  1  0  0  0  0
  3 12  2  0  0  0  0
  4  6  2  0  0  0  0
  4  9  1  0  0  0  0
  4 10  1  0  0  0  0
  5 11  1  0  0  0  0
  7  8  2  0  0  0  0
  7 12  1  0  0  0  0
  9 12  1  0  0  0  0
 10 11  1  0  0  0  0
M  END
>  <Original_Directory>
3rgy_A_rec_2r71_ins_lig_tt_min_0_pocket10

>  <Original_Filename>
3rgy_A_rec_2r71_ins_lig_tt_min_0_pocket10_gen_sample_5.sdf

>  <Molecule_ID>
sample_5

>  <logS>
-1.2432801

$$$$