/tmp/tmpox8drubl
  MOE2022           3D

 23 26  0  0  1  0  0  0  0  0999 V2000
   -8.8160  106.1790   22.7360 C   0  0  0  0  0  0  0  0  0  0  0  0
   -4.6460  102.6030   21.7020 C   0  0  0  0  0  0  0  0  0  0  0  0
   -2.8150  104.2540   21.0820 C   0  0  0  0  0  0  0  0  0  0  0  0
   -1.0340  102.9840   25.3540 C   0  0  0  0  0  0  0  0  0  0  0  0
   -9.8550  107.2510   23.0340 C   0  0  0  0  0  0  0  0  0  0  0  0
   -2.2300  103.6520   25.0840 C   0  0  0  0  0  0  0  0  0  0  0  0
   -2.5530  104.0040   27.4090 C   0  0  0  0  0  0  0  0  0  0  0  0
   -6.6330  105.5460   23.4720 C   0  0  0  0  0  0  0  0  0  0  0  0
   -2.8220  104.4020   26.1020 C   0  0  0  0  0  0  0  0  0  0  0  0
   -3.9050  104.3350   23.3150 C   0  0  0  0  0  0  0  0  0  0  0  0
   -6.3120  105.3390   22.1300 C   0  0  0  0  0  0  0  0  0  0  0  0
   -2.8920  102.0200   23.4310 C   0  0  0  0  0  0  0  0  0  0  0  0
   -3.5730  101.6110   22.1430 C   0  0  0  0  0  0  0  0  0  0  0  0
   -0.5640  102.8950   26.6630 C   0  0  0  0  0  0  0  0  0  0  0  0
   -5.1400  105.0160   21.2310 C   0  0  3  0  0  0  0  0  0  0  0  0
   -2.9830  103.3020   23.9290 C   0  0  0  0  0  0  0  0  0  0  0  0
   -7.9650  105.8150   23.7930 C   0  0  0  0  0  0  0  0  0  0  0  0
   -4.1300  104.0350   21.8200 C   0  0  2  0  0  0  0  0  0  0  0  0
   -1.2850  103.4970   27.6970 C   0  0  0  0  0  0  0  0  0  0  0  0
   -8.5590  105.7310   21.4730 N   0  0  0  0  0  0  0  0  0  0  0  0
   -6.2800  104.8280   20.2080 C   0  0  0  0  0  0  0  0  0  0  0  0
   -7.3110  105.2180   21.2230 C   0  0  0  0  0  0  0  0  0  0  0  0
   -3.6810  103.7900   28.3780 C   0  0  0  0  0  0  0  0  0  0  0  0
  1  5  1  0  0  0  0
  1 17  1  0  0  0  0
  1 20  2  0  0  0  0
  2 13  1  0  0  0  0
  2 18  1  0  0  0  0
  3 18  1  0  0  0  0
  4  6  2  0  0  0  0
  4 14  1  0  0  0  0
  6  9  1  0  0  0  0
  6 16  1  0  0  0  0
  7  9  2  0  0  0  0
  7 19  1  0  0  0  0
  7 23  1  0  0  0  0
  8 11  1  0  0  0  0
  8 17  2  0  0  0  0
 10 16  1  0  0  0  0
 10 18  1  0  0  0  0
 11 15  1  0  0  0  0
 11 22  2  0  0  0  0
 12 13  1  0  0  0  0
 12 16  2  0  0  0  0
 14 19  2  0  0  0  0
 15 18  1  0  0  0  0
 15 21  1  0  0  0  0
 20 22  1  0  0  0  0
 21 22  1  0  0  0  0
M  END
>  <Original_Directory>
5mku_A_rec_4m8h_r4m_lig_tt_min_0_pocket10

>  <Original_Filename>
5mku_A_rec_4m8h_r4m_lig_tt_min_0_pocket10_gen_sample_16.sdf

>  <Molecule_ID>
sample_16

>  <logS>
-5.4035401

$$$$