/tmp/tmp0990ujo6
  MOE2022           3D

 10  9  0  0  0  0  0  0  0  0999 V2000
   -1.3570   11.9120  -16.4070 C   0  0  0  0  0  0  0  0  0  0  0  0
   -2.1990   16.5530  -15.8500 O   0  0  0  0  0  0  0  0  0  0  0  0
   -2.2590   14.1360  -15.6540 C   0  0  0  0  0  0  0  0  0  0  0  0
   -2.1310   15.3750  -17.6750 O   0  0  0  0  0  0  0  0  0  0  0  0
   -3.0340   10.2640  -15.7210 N   0  0  0  0  0  0  0  0  0  0  0  0
   -1.5950    9.7870  -17.4360 O   0  0  0  0  0  0  0  0  0  0  0  0
   -2.2220   15.4550  -16.4200 C   0  0  0  0  0  0  0  0  0  0  0  0
   -1.7120   10.4050  -16.2500 C   0  0  0  0  0  0  0  0  0  0  0  0
   -0.7660    9.8310  -15.4190 O   0  0  0  0  0  0  0  0  0  0  0  0
   -2.4940   12.9270  -16.5770 C   0  0  0  0  0  0  0  0  0  0  0  0
  1  8  1  0  0  0  0
  1 10  1  0  0  0  0
  2  7  1  0  0  0  0
  3  7  1  0  0  0  0
  3 10  1  0  0  0  0
  4  7  2  0  0  0  0
  5  8  1  0  0  0  0
  6  8  1  0  0  0  0
  8  9  1  0  0  0  0
M  END
>  <Original_Directory>
2wwj_A_rec_5ly2_oga_lig_tt_docked_6_pocket10

>  <Original_Filename>
2wwj_A_rec_5ly2_oga_lig_tt_docked_6_pocket10_gen_sample_13.sdf

>  <Molecule_ID>
sample_13

>  <logS>
0.72996002

$$$$