
  MOE2022           3D

 27 31  0  0  1  0  0  0  0  0999 V2000
    6.7580   37.2730   24.2820 C   0  0  0  0  0  0  0  0  0  0  0  0
    9.5970   35.1430   29.1440 C   0  0  3  0  0  0  0  0  0  0  0  0
    2.5530   33.7570   22.6060 O   0  0  0  0  0  0  0  0  0  0  0  0
    7.2420   36.8670   26.7550 C   0  0  3  0  0  0  0  0  0  0  0  0
    3.1650   34.7870   22.9000 C   0  0  0  0  0  0  0  0  0  0  0  0
    7.9860   36.0090   27.4790 N   0  0  0  0  0  0  0  0  0  0  0  0
    6.3440   37.9280   27.3600 C   0  0  0  0  0  0  0  0  0  0  0  0
   10.2360   33.5110   30.8420 N   0  0  0  0  0  0  0  0  0  0  0  0
   10.8980   35.7630   30.8270 O   0  0  0  0  0  0  0  0  0  0  0  0
    8.4320   36.0890   28.8760 C   0  0  0  0  0  0  0  0  0  0  0  0
    9.7290   32.7610   29.6880 C   0  0  3  0  0  0  0  0  0  0  0  0
    9.1340   33.9740   27.1060 N   0  0  0  0  0  0  0  0  0  0  0  0
    8.7820   35.1920   31.4360 O   0  0  0  0  0  0  0  0  0  0  0  0
    4.5240   35.6540   25.7860 O   0  0  0  0  0  0  0  0  0  0  0  0
    9.8450   34.9160   30.6420 C   0  0  0  0  0  0  0  0  0  0  0  0
   10.8180   33.5620   28.4250 O   0  0  0  0  0  0  0  0  0  0  0  0
    4.6060   37.6580   23.0900 C   0  0  0  0  0  0  0  0  0  0  0  0
    3.5030   37.2020   22.3210 C   0  0  0  0  0  0  0  0  0  0  0  0
    8.1460   35.4780   25.3370 C   0  0  0  0  0  0  0  0  0  0  0  0
    8.5920   35.0210   24.2690 O   0  0  0  0  0  0  0  0  0  0  0  0
    5.3390   36.8800   23.9490 C   0  0  3  0  0  0  0  0  0  0  0  0
    4.2370   34.6900   23.7500 N   0  0  0  0  0  0  0  0  0  0  0  0
    2.8170   36.0420   22.3330 C   0  0  0  0  0  0  0  0  0  0  0  0
    4.6870   35.6820   24.5750 C   0  0  0  0  0  0  0  0  0  0  0  0
    9.3380   33.7010   28.5510 C   0  0  1  0  0  0  0  0  0  0  0  0
    8.4590   35.0560   26.6720 C   0  0  0  0  0  0  0  0  0  0  0  0
    7.3390   36.5730   25.4340 N   0  0  0  0  0  0  0  0  0  0  0  0
  1 21  1  0  0  0  0
  1 27  1  0  0  0  0
  2 10  1  0  0  0  0
  2 15  1  0  0  0  0
  2 25  1  0  0  0  0
  3  5  2  0  0  0  0
  4  6  1  0  0  0  0
  4  7  1  0  0  0  0
  4 27  1  0  0  0  0
  5 22  1  0  0  0  0
  5 23  1  0  0  0  0
  6 10  1  0  0  0  0
  6 26  1  0  0  0  0
  8 11  1  0  0  0  0
  8 15  1  0  0  0  0
  9 15  1  0  0  0  0
 11 16  1  0  0  0  0
 11 25  1  0  0  0  0
 12 25  1  0  0  0  0
 12 26  2  0  0  0  0
 13 15  1  0  0  0  0
 14 24  2  0  0  0  0
 16 25  1  0  0  0  0
 17 18  2  0  0  0  0
 17 21  1  0  0  0  0
 18 23  1  0  0  0  0
 19 20  2  0  0  0  0
 19 26  1  0  0  0  0
 19 27  1  0  0  0  0
 21 24  1  0  0  0  0
 22 24  1  0  0  0  0
M  END
>  <Original_Directory>
4ng9_H_rec_4isi_1gg_lig_tt_docked_1_pocket10

>  <Original_Filename>
4ng9_H_rec_4isi_1gg_lig_tt_docked_1_pocket10_gen_sample_6.sdf

>  <Molecule_ID>
sample_6

>  <logS>
-1.1041501

$$$$