/tmp/tmpgji2qagy
  MOE2022           3D

 18 21  0  0  1  0  0  0  0  0999 V2000
  -22.2070   -0.0610   -9.8450 C   0  0  3  0  0  0  0  0  0  0  0  0
  -21.4230    1.0400   -5.4770 C   0  0  0  0  0  0  0  0  0  0  0  0
  -22.3270    1.1590  -10.7590 C   0  0  0  0  0  0  0  0  0  0  0  0
  -21.2380   -1.0290   -4.2440 C   0  0  0  0  0  0  0  0  0  0  0  0
  -22.4770    0.7940   -3.3510 C   0  0  0  0  0  0  0  0  0  0  0  0
  -22.2410    0.5040   -8.4530 C   0  0  0  0  0  0  0  0  0  0  0  0
  -23.3430   -1.4010   -7.6370 O   0  0  0  0  0  0  0  0  0  0  0  0
  -22.2490   -0.0670   -6.0620 C   0  0  3  0  0  0  0  0  0  0  0  0
  -21.5730    2.3720  -10.2720 C   0  0  0  0  0  0  0  0  0  0  0  0
  -20.8220   -0.6760   -9.9420 C   0  0  0  0  0  0  0  0  0  0  0  0
  -21.1490    0.4680   -4.0720 C   0  0  3  0  0  0  0  0  0  0  0  0
  -19.9990   -0.1120   -8.8080 C   0  0  0  0  0  0  0  0  0  0  0  0
  -23.0340   -0.0620   -7.3230 C   0  0  3  0  0  0  0  0  0  0  0  0
  -23.4530   -0.1600   -3.9860 C   0  0  0  0  0  0  0  0  0  0  0  0
  -22.5760   -0.9810   -4.9350 C   0  0  3  0  0  0  0  0  0  0  0  0
  -20.8400    1.0240   -8.2130 C   0  0  3  0  0  0  0  0  0  0  0  0
  -20.7390    2.3220   -9.0260 C   0  0  0  0  0  0  0  0  0  0  0  0
  -21.7190    3.4780  -10.9100 O   0  0  0  0  0  0  0  0  0  0  0  0
  1  3  1  0  0  0  0
  1  6  1  0  0  0  0
  1 10  1  0  0  0  0
  2  8  1  0  0  0  0
  2 11  1  0  0  0  0
  3  9  1  0  0  0  0
  4 11  1  0  0  0  0
  4 15  1  0  0  0  0
  5 11  1  0  0  0  0
  5 14  1  0  0  0  0
  6 13  1  0  0  0  0
  6 16  1  0  0  0  0
  7 13  1  0  0  0  0
  8 13  1  0  0  0  0
  8 15  1  0  0  0  0
  9 17  1  0  0  0  0
  9 18  2  0  0  0  0
 10 12  1  0  0  0  0
 12 16  1  0  0  0  0
 14 15  1  0  0  0  0
 16 17  1  0  0  0  0
M  END
>  <Original_Directory>
4pwf_A_rec_3glz_1bd_lig_tt_min_0_pocket10

>  <Original_Filename>
4pwf_A_rec_3glz_1bd_lig_tt_min_0_pocket10_gen_sample_9.sdf

>  <Molecule_ID>
sample_9

>  <logS>
-3.6278501

$$$$