/tmp/tmp65dnbyps
  MOE2022           3D

 18 20  0  0  1  0  0  0  0  0999 V2000
  -23.5330   -0.7410   -4.9030 C   0  0  0  0  0  0  0  0  0  0  0  0
  -22.0590    0.5750   -6.3590 N   0  0  0  0  0  0  0  0  0  0  0  0
  -21.3880    1.3860   -5.5170 C   0  0  0  0  0  0  0  0  0  0  0  0
  -23.8080    0.1550   -3.8810 C   0  0  0  0  0  0  0  0  0  0  0  0
  -23.0300    1.3310   -3.7220 C   0  0  0  0  0  0  0  0  0  0  0  0
  -20.3430    0.1880   -9.1370 C   0  0  0  0  0  0  0  0  0  0  0  0
  -21.6580    2.6050  -10.0310 C   0  0  0  0  0  0  0  0  0  0  0  0
  -23.4970    2.4070   -3.2070 O   0  0  0  0  0  0  0  0  0  0  0  0
  -22.6330   -0.5860   -5.9380 C   0  0  0  0  0  0  0  0  0  0  0  0
  -20.7170    2.6680   -8.8380 C   0  0  0  0  0  0  0  0  0  0  0  0
  -22.4680    1.3020  -10.0890 C   0  0  3  0  0  0  0  0  0  0  0  0
  -20.5960    1.3090   -8.1330 C   0  0  3  0  0  0  0  0  0  0  0  0
  -21.6290    1.2610   -4.1660 C   0  0  0  0  0  0  0  0  0  0  0  0
  -22.0180    1.0510   -7.6760 C   0  0  3  0  0  0  0  0  0  0  0  0
  -23.1070    1.0930   -8.7080 C   0  0  0  0  0  0  0  0  0  0  0  0
  -20.5390    0.8470   -3.2180 C   0  0  0  0  0  0  0  0  0  0  0  0
  -21.6670   -0.7760  -10.9170 O   0  0  0  0  0  0  0  0  0  0  0  0
  -21.4310    0.1680  -10.1710 C   0  0  0  0  0  0  0  0  0  0  0  0
  1  4  1  0  0  0  0
  1  9  2  0  0  0  0
  2  3  1  0  0  0  0
  2  9  1  0  0  0  0
  2 14  1  0  0  0  0
  3 13  2  0  0  0  0
  4  5  2  0  0  0  0
  5  8  1  0  0  0  0
  5 13  1  0  0  0  0
  6 12  1  0  0  0  0
  6 18  1  0  0  0  0
  7 10  1  0  0  0  0
  7 11  1  0  0  0  0
 10 12  1  0  0  0  0
 11 15  1  0  0  0  0
 11 18  1  0  0  0  0
 12 14  1  0  0  0  0
 13 16  1  0  0  0  0
 14 15  1  0  0  0  0
 17 18  2  0  0  0  0
M  END
>  <Original_Directory>
4pwf_A_rec_3glz_1bd_lig_tt_min_0_pocket10

>  <Original_Filename>
4pwf_A_rec_3glz_1bd_lig_tt_min_0_pocket10_gen_sample_19.sdf

>  <Molecule_ID>
sample_19

>  <logS>
-1.32833

$$$$