/tmp/tmp1lhney6z
  MOE2022           3D

 21 25  0  0  1  0  0  0  0  0999 V2000
   27.3470    1.6000    3.8130 C   0  0  2  0  0  0  0  0  0  0  0  0
   28.6480   -0.7860    3.1850 C   0  0  0  0  0  0  0  0  0  0  0  0
   31.0940   -0.4190    3.9140 C   0  0  3  0  0  0  0  0  0  0  0  0
   27.7940   -0.2200    5.3360 O   0  0  0  0  0  0  0  0  0  0  0  0
   29.9850   -1.4380    3.5990 C   0  0  0  0  0  0  0  0  0  0  0  0
   26.6620    6.2930    3.3850 C   0  0  0  0  0  0  0  0  0  0  0  0
   27.3910    5.0350    3.9110 C   0  0  0  0  0  0  0  0  0  0  0  0
   31.1930   -0.1100    5.4370 C   0  0  0  0  0  0  0  0  0  0  0  0
   29.5740    1.2990    4.3480 C   0  0  2  0  0  0  0  0  0  0  0  0
   30.6710    0.9580    3.3060 C   0  0  0  0  0  0  0  0  0  0  0  0
   24.3130    6.7130    2.9060 O   0  0  0  0  0  0  0  0  0  0  0  0
   26.3650    2.6320    4.4950 C   0  0  3  0  0  0  0  0  0  0  0  0
   24.9870    4.5610    3.8230 C   0  0  3  0  0  0  0  0  0  0  0  0
   28.6750    2.4440    3.8880 C   0  0  0  0  0  0  0  0  0  0  0  0
   26.3650    3.9120    3.6290 C   0  0  3  0  0  0  0  0  0  0  0  0
   24.8530    2.2760    4.4270 C   0  0  0  0  0  0  0  0  0  0  0  0
   24.1720    3.6330    4.6980 C   0  0  0  0  0  0  0  0  0  0  0  0
   26.9100    1.3820    2.3200 C   0  0  0  0  0  0  0  0  0  0  0  0
   30.2870    1.1220    5.7030 C   0  0  0  0  0  0  0  0  0  0  0  0
   28.3160    0.4000    4.1660 C   0  0  2  0  0  0  0  0  0  0  0  0
   25.2100    6.0670    3.8110 C   0  0  3  0  0  0  0  0  0  0  0  0
  1 12  1  0  0  0  0
  1 14  1  0  0  0  0
  1 18  1  0  0  0  0
  1 20  1  0  0  0  0
  2  5  1  0  0  0  0
  2 20  1  0  0  0  0
  3  5  1  0  0  0  0
  3  8  1  0  0  0  0
  3 10  1  0  0  0  0
  4 20  1  0  0  0  0
  6  7  1  0  0  0  0
  6 21  1  0  0  0  0
  7 15  1  0  0  0  0
  8 19  1  0  0  0  0
  9 10  1  0  0  0  0
  9 14  1  0  0  0  0
  9 19  1  0  0  0  0
  9 20  1  0  0  0  0
 11 21  1  0  0  0  0
 12 15  1  0  0  0  0
 12 16  1  0  0  0  0
 13 15  1  0  0  0  0
 13 17  1  0  0  0  0
 13 21  1  0  0  0  0
 16 17  1  0  0  0  0
M  END
>  <Original_Directory>
3g0w_A_rec_2pip_dht_lig_tt_min_0_pocket10

>  <Original_Filename>
3g0w_A_rec_2pip_dht_lig_tt_min_0_pocket10_gen_sample_15.sdf

>  <Molecule_ID>
sample_15

>  <logS>
-3.42202

$$$$