/tmp/tmpvxsh6jsy
  MOE2022           3D

 28 31  0  0  0  0  0  0  0  0999 V2000
   29.1110   -0.1740    7.1790 N   0  0  0  0  0  0  0  0  0  0  0  0
   22.4490    1.5590   10.6470 O   0  0  0  0  0  0  0  0  0  0  0  0
   23.0330    0.7000   11.5480 C   0  0  0  0  0  0  0  0  0  0  0  0
   24.9420   -0.7190   11.8910 C   0  0  0  0  0  0  0  0  0  0  0  0
   32.1320   -1.7300    6.8560 O   0  0  0  0  0  0  0  0  0  0  0  0
   27.2850   -2.0790   11.5840 S   0  0  0  0  0  0  0  0  0  0  0  0
   24.4280    0.5650   11.6180 C   0  0  0  0  0  0  0  0  0  0  0  0
   29.6170   -2.6770   10.2910 C   0  0  0  0  0  0  0  0  0  0  0  0
   31.2810   -0.4750    4.3240 F   0  0  0  0  0  0  0  0  0  0  0  0
   28.4980   -1.8410   10.3230 C   0  0  0  0  0  0  0  0  0  0  0  0
   28.0620    0.8740    5.3150 C   0  0  0  0  0  0  0  0  0  0  0  0
   24.1970   -1.5280   12.7600 C   0  0  0  0  0  0  0  0  0  0  0  0
   30.3580   -1.5450    8.3410 N   0  0  0  0  0  0  0  0  0  0  0  0
   29.3580    1.2380    3.3350 O   0  0  0  0  0  0  0  0  0  0  0  0
   22.2250   -0.2910   12.1240 C   0  0  0  0  0  0  0  0  0  0  0  0
   28.3620   -0.7880    9.4060 C   0  0  0  0  0  0  0  0  0  0  0  0
   29.2160    0.6450    4.5460 C   0  0  0  0  0  0  0  0  0  0  0  0
   30.5750   -2.4750    9.3190 C   0  0  0  0  0  0  0  0  0  0  0  0
   28.0610    0.5160    6.6510 C   0  0  0  0  0  0  0  0  0  0  0  0
   31.0340   -1.2320    7.2000 C   0  0  0  0  0  0  0  0  0  0  0  0
   30.2460   -0.1020    5.0910 C   0  0  0  0  0  0  0  0  0  0  0  0
   25.9950   -1.1830   11.1120 N   0  0  0  0  0  0  0  0  0  0  0  0
   25.2490    1.6510   11.5020 O   0  0  0  0  0  0  0  0  0  0  0  0
   30.2100   -0.4470    6.4280 C   0  0  0  0  0  0  0  0  0  0  0  0
   29.3910   -0.5550    8.4780 C   0  0  0  0  0  0  0  0  0  0  0  0
   26.8980   -3.4690   11.5650 O   0  0  0  0  0  0  0  0  0  0  0  0
   27.8430   -1.5520   12.8130 O   0  0  0  0  0  0  0  0  0  0  0  0
   22.8310   -1.2860   12.9020 C   0  0  0  0  0  0  0  0  0  0  0  0
  1 19  1  0  0  0  0
  1 24  1  0  0  0  0
  1 25  1  0  0  0  0
  2  3  1  0  0  0  0
  3  7  1  0  0  0  0
  3 15  2  0  0  0  0
  4  7  2  0  0  0  0
  4 12  1  0  0  0  0
  4 22  1  0  0  0  0
  5 20  2  0  0  0  0
  6 10  1  0  0  0  0
  6 22  1  0  0  0  0
  6 26  2  0  0  0  0
  6 27  2  0  0  0  0
  7 23  1  0  0  0  0
  8 10  2  0  0  0  0
  8 18  1  0  0  0  0
  9 21  1  0  0  0  0
 10 16  1  0  0  0  0
 11 17  2  0  0  0  0
 11 19  1  0  0  0  0
 12 28  2  0  0  0  0
 13 18  1  0  0  0  0
 13 20  1  0  0  0  0
 13 25  1  0  0  0  0
 14 17  1  0  0  0  0
 15 28  1  0  0  0  0
 16 25  2  0  0  0  0
 17 21  1  0  0  0  0
 20 24  1  0  0  0  0
 21 24  2  0  0  0  0
M  END
>  <Original_Directory>
1a4r_B_rec_1a4r_gdp_lig_tt_docked_0_pocket10

>  <Original_Filename>
1a4r_B_rec_1a4r_gdp_lig_tt_docked_0_pocket10_gen_sample_5.sdf

>  <Molecule_ID>
sample_5

>  <logS>
-3.2491601

$$$$