/tmp/tmp8u1pogr8
  MOE2022           3D

 27 32  0  0  0  0  0  0  0  0999 V2000
  -28.0830   25.0370  -15.8030 C   0  0  0  0  0  0  0  0  0  0  0  0
  -28.5280   22.9150  -16.9680 C   0  0  0  0  0  0  0  0  0  0  0  0
  -30.0030   19.8920  -15.8100 N   0  0  0  0  0  0  0  0  0  0  0  0
  -26.1920   23.6060  -17.6700 C   0  0  0  0  0  0  0  0  0  0  0  0
  -25.9930   24.8480  -17.1150 C   0  0  0  0  0  0  0  0  0  0  0  0
  -28.6020   20.6230  -20.4560 C   0  0  0  0  0  0  0  0  0  0  0  0
  -27.4140   21.8630  -22.3800 C   0  0  0  0  0  0  0  0  0  0  0  0
  -27.4350   22.9780  -17.8270 C   0  0  0  0  0  0  0  0  0  0  0  0
  -31.6660   17.3600  -21.5410 C   0  0  0  0  0  0  0  0  0  0  0  0
  -25.8450   21.7750  -19.1770 C   0  0  0  0  0  0  0  0  0  0  0  0
  -28.4300   21.2990  -19.2300 C   0  0  0  0  0  0  0  0  0  0  0  0
  -32.2990   18.0940  -20.5420 C   0  0  0  0  0  0  0  0  0  0  0  0
  -29.7790   21.2000  -15.9160 C   0  0  0  0  0  0  0  0  0  0  0  0
  -26.8850   25.4760  -16.2690 C   0  0  0  0  0  0  0  0  0  0  0  0
  -29.5350   19.5330  -20.5240 C   0  0  0  0  0  0  0  0  0  0  0  0
  -27.2840   21.9940  -18.8270 C   0  0  0  0  0  0  0  0  0  0  0  0
  -28.8410   23.9350  -16.0780 C   0  0  0  0  0  0  0  0  0  0  0  0
  -29.3340   21.8050  -17.0380 N   0  0  0  0  0  0  0  0  0  0  0  0
  -29.3510   21.0810  -18.1950 C   0  0  0  0  0  0  0  0  0  0  0  0
  -30.0240   19.8580  -18.1800 C   0  0  0  0  0  0  0  0  0  0  0  0
  -30.0540   19.1940  -16.9540 C   0  0  0  0  0  0  0  0  0  0  0  0
  -29.5540   18.6780  -21.6330 C   0  0  0  0  0  0  0  0  0  0  0  0
  -30.4110   17.6960  -22.0370 C   0  0  0  0  0  0  0  0  0  0  0  0
  -27.8910   21.0150  -21.6120 C   0  0  0  0  0  0  0  0  0  0  0  0
  -30.4510   19.3930  -19.4510 C   0  0  0  0  0  0  0  0  0  0  0  0
  -31.7790   18.9820  -19.6450 C   0  0  0  0  0  0  0  0  0  0  0  0
  -25.1030   22.7940  -18.3210 C   0  0  0  0  0  0  0  0  0  0  0  0
  1 14  2  0  0  0  0
  1 17  1  0  0  0  0
  2  8  1  0  0  0  0
  2 17  2  0  0  0  0
  2 18  1  0  0  0  0
  3 13  2  0  0  0  0
  3 21  1  0  0  0  0
  4  5  2  0  0  0  0
  4  8  1  0  0  0  0
  4 27  1  0  0  0  0
  5 14  1  0  0  0  0
  6 11  1  0  0  0  0
  6 15  2  0  0  0  0
  6 24  1  0  0  0  0
  7 24  2  0  0  0  0
  8 16  2  0  0  0  0
  9 12  2  0  0  0  0
  9 23  1  0  0  0  0
 10 16  1  0  0  0  0
 10 27  1  0  0  0  0
 11 16  1  0  0  0  0
 11 19  2  0  0  0  0
 12 26  1  0  0  0  0
 13 18  1  0  0  0  0
 15 22  1  0  0  0  0
 15 25  1  0  0  0  0
 18 19  1  0  0  0  0
 19 20  1  0  0  0  0
 20 21  2  0  0  0  0
 20 25  1  0  0  0  0
 22 23  2  0  0  0  0
 25 26  2  0  0  0  0
M  END
>  <Original_Directory>
3owd_A_rec_3vhd_vhe_lig_tt_docked_1_pocket10

>  <Original_Filename>
3owd_A_rec_3vhd_vhe_lig_tt_docked_1_pocket10_gen_sample_7.sdf

>  <Molecule_ID>
sample_7

>  <logS>
-7.0878501

$$$$