/tmp/tmpxh28w68q
  MOE2022           3D

 21 24  0  0  1  0  0  0  0  0999 V2000
  -49.9770  -12.8510   29.0570 C   0  0  0  0  0  0  0  0  0  0  0  0
  -50.5790   -7.7090   30.4970 C   0  0  0  0  0  0  0  0  0  0  0  0
  -49.8540  -11.5620   29.5430 C   0  0  0  0  0  0  0  0  0  0  0  0
  -51.2680  -14.0780   30.6920 C   0  0  0  0  0  0  0  0  0  0  0  0
  -51.4030   -6.5820   30.6270 C   0  0  0  0  0  0  0  0  0  0  0  0
  -50.9670   -5.4590   31.3350 C   0  0  0  0  0  0  0  0  0  0  0  0
  -53.1950   -4.5500   31.2670 C   0  0  0  0  0  0  0  0  0  0  0  0
  -50.3220   -9.9670   32.7010 C   0  0  0  0  0  0  0  0  0  0  0  0
  -50.5650   -9.9450   31.2740 N   0  0  0  0  0  0  0  0  0  0  0  0
  -53.6430   -5.6570   30.5590 C   0  0  0  0  0  0  0  0  0  0  0  0
  -50.7000  -12.0080   31.8250 C   0  0  0  0  0  0  0  0  0  0  0  0
  -50.3820  -11.1870   30.7740 C   0  0  0  0  0  0  0  0  0  0  0  0
  -52.6000   -9.0200   30.4080 C   0  0  0  0  0  0  0  0  0  0  0  0
  -51.8780   -4.4760   31.7190 C   0  0  0  0  0  0  0  0  0  0  0  0
  -53.2600  -10.0260   30.7990 O   0  0  0  0  0  0  0  0  0  0  0  0
  -51.3020  -13.2650   31.7930 C   0  0  0  0  0  0  0  0  0  0  0  0
  -52.7480   -6.6770   30.2390 C   0  0  0  0  0  0  0  0  0  0  0  0
  -53.2460   -7.9160   29.8270 C   0  0  0  0  0  0  0  0  0  0  0  0
  -51.2160   -8.9360   30.6560 C   0  0  3  0  0  0  0  0  0  0  0  0
  -50.6600  -13.8890   29.5320 N   0  0  0  0  0  0  0  0  0  0  0  0
  -50.4950  -11.3490   33.0060 O   0  0  0  0  0  0  0  0  0  0  0  0
  1  3  1  0  0  0  0
  1 20  2  0  0  0  0
  2  5  1  0  0  0  0
  2 19  1  0  0  0  0
  3 12  1  0  0  0  0
  4 16  2  0  0  0  0
  4 20  1  0  0  0  0
  5  6  1  0  0  0  0
  5 17  2  0  0  0  0
  6 14  2  0  0  0  0
  7 10  2  0  0  0  0
  7 14  1  0  0  0  0
  8  9  1  0  0  0  0
  8 21  1  0  0  0  0
  9 12  1  0  0  0  0
  9 19  1  0  0  0  0
 10 17  1  0  0  0  0
 11 12  2  0  0  0  0
 11 16  1  0  0  0  0
 11 21  1  0  0  0  0
 13 15  2  0  0  0  0
 13 18  1  0  0  0  0
 13 19  1  0  0  0  0
 17 18  1  0  0  0  0
M  END
>  <Original_Directory>
4ijw_A_rec_3bzu_a21_lig_tt_min_0_pocket10

>  <Original_Filename>
4ijw_A_rec_3bzu_a21_lig_tt_min_0_pocket10_gen_sample_19.sdf

>  <Molecule_ID>
sample_19

>  <logS>
-2.77579

$$$$