/tmp/tmp3089kzs5
  MOE2022           3D

 26 29  0  0  1  0  0  0  0  0999 V2000
   20.0740    4.0910   22.8260 N   0  0  0  0  0  0  0  0  0  0  0  0
   21.3440    9.4440   19.9410 C   0  0  0  0  0  0  0  0  0  0  0  0
   21.0150    3.6850   21.8970 C   0  0  0  0  0  0  0  0  0  0  0  0
   21.2540    6.1510   23.0890 C   0  0  3  0  0  0  0  0  0  0  0  0
   20.7280   10.3230   22.4080 C   0  0  0  0  0  0  0  0  0  0  0  0
   22.6660    8.6060   18.1030 N   0  0  0  0  0  0  0  0  0  0  0  0
   22.4620    8.7640   19.4250 C   0  0  0  0  0  0  0  0  0  0  0  0
   20.3980    9.8410   23.6980 C   0  0  0  0  0  0  0  0  0  0  0  0
   19.0810   10.2640   19.1520 C   0  0  0  0  0  0  0  0  0  0  0  0
   21.1620    9.3790   21.4170 C   0  0  0  0  0  0  0  0  0  0  0  0
   20.9750   11.3260   25.5250 F   0  0  0  0  0  0  0  0  0  0  0  0
   20.3100    5.1800   23.6460 C   0  0  0  0  0  0  0  0  0  0  0  0
   19.7440    5.3080   24.7330 O   0  0  0  0  0  0  0  0  0  0  0  0
   21.0840   10.3510   17.7130 C   0  0  0  0  0  0  0  0  0  0  0  0
   22.0490    9.4380   17.2570 C   0  0  0  0  0  0  0  0  0  0  0  0
   20.9970    7.5750   23.0310 C   0  0  0  0  0  0  0  0  0  0  0  0
   19.9610   10.5470   24.9700 C   0  0  3  0  0  0  0  0  0  0  0  0
   20.8170   11.4700   16.9800 N   0  0  0  0  0  0  0  0  0  0  0  0
   20.3330    8.4440   23.9350 C   0  0  0  0  0  0  0  0  0  0  0  0
   19.5210    9.4750   25.9650 C   0  0  0  0  0  0  0  0  0  0  0  0
   22.3680    5.6060   22.4310 C   0  0  0  0  0  0  0  0  0  0  0  0
   21.5140    8.1210   21.8590 C   0  0  0  0  0  0  0  0  0  0  0  0
   18.1460   10.5120   18.3840 N   0  0  0  0  0  0  0  0  0  0  0  0
   19.5450    8.1620   25.2010 C   0  0  0  0  0  0  0  0  0  0  0  0
   22.1670    4.4230   21.6910 C   0  0  0  0  0  0  0  0  0  0  0  0
   20.5010   10.0820   18.9840 C   0  0  0  0  0  0  0  0  0  0  0  0
  1  3  2  0  0  0  0
  1 12  1  0  0  0  0
  2  7  1  0  0  0  0
  2 10  1  0  0  0  0
  2 26  2  0  0  0  0
  3 25  1  0  0  0  0
  4 12  1  0  0  0  0
  4 16  1  0  0  0  0
  4 21  1  0  0  0  0
  5  8  2  0  0  0  0
  5 10  1  0  0  0  0
  6  7  2  0  0  0  0
  6 15  1  0  0  0  0
  8 17  1  0  0  0  0
  8 19  1  0  0  0  0
  9 23  2  0  0  0  0
  9 26  1  0  0  0  0
 10 22  2  0  0  0  0
 11 17  1  0  0  0  0
 12 13  2  0  0  0  0
 14 15  2  0  0  0  0
 14 18  1  0  0  0  0
 14 26  1  0  0  0  0
 16 19  2  0  0  0  0
 16 22  1  0  0  0  0
 17 20  1  0  0  0  0
 19 24  1  0  0  0  0
 20 24  1  0  0  0  0
 21 25  1  0  0  0  0
M  END
>  <Original_Directory>
2pvl_A_rec_2pvl_p55_lig_tt_min_0_pocket10

>  <Original_Filename>
2pvl_A_rec_2pvl_p55_lig_tt_min_0_pocket10_gen_sample_13.sdf

>  <Molecule_ID>
sample_13

>  <logS>
-3.8205099

$$$$