/tmp/tmpiqkwqz0q
  MOE2022           3D

 14 13  0  0  1  0  0  0  0  0999 V2000
   13.8300   -9.9540   22.6320 O   0  0  0  0  0  0  0  0  0  0  0  0
   14.5220   -8.5320   21.1340 O   0  0  0  0  0  0  0  0  0  0  0  0
   10.9460   -9.5620   19.5350 O   0  0  0  0  0  0  0  0  0  0  0  0
   11.0220   -8.3380   19.3350 C   0  0  0  0  0  0  0  0  0  0  0  0
   12.2760   -7.1160   21.1820 C   0  0  0  0  0  0  0  0  0  0  0  0
   12.3050   -7.6420   19.7570 C   0  0  3  0  0  0  0  0  0  0  0  0
   11.6800   -8.2910   23.3470 C   0  0  0  0  0  0  0  0  0  0  0  0
   10.1280   -7.6830   18.7770 O   0  0  0  0  0  0  0  0  0  0  0  0
   10.6040   -7.7030   23.4540 O   0  0  0  0  0  0  0  0  0  0  0  0
   11.3180   -6.1370   21.4120 O   0  0  0  0  0  0  0  0  0  0  0  0
   12.8280   -6.7120   18.8160 O   0  0  0  0  0  0  0  0  0  0  0  0
   12.0920   -9.0110   24.2830 O   0  0  0  0  0  0  0  0  0  0  0  0
   13.6510   -8.9490   21.9650 C   0  0  0  0  0  0  0  0  0  0  0  0
   12.4950   -8.1470   22.1890 N   0  0  0  0  0  0  0  0  0  0  0  0
  1 13  1  0  0  0  0
  2 13  2  0  0  0  0
  3  4  1  0  0  0  0
  4  6  1  0  0  0  0
  4  8  2  0  0  0  0
  5  6  1  0  0  0  0
  5 10  2  0  0  0  0
  5 14  1  0  0  0  0
  6 11  1  0  0  0  0
  7  9  2  0  0  0  0
  7 12  1  0  0  0  0
  7 14  1  0  0  0  0
 13 14  1  0  0  0  0
M  END
>  <Original_Directory>
4di8_A_rec_4di9_0gy_lig_tt_min_0_pocket10

>  <Original_Filename>
4di8_A_rec_4di9_0gy_lig_tt_min_0_pocket10_gen_sample_9.sdf

>  <Molecule_ID>
sample_9

>  <logS>
0.44598001

$$$$