/tmp/tmpgkq3maal
  MOE2022           3D

 10 10  0  0  0  0  0  0  0  0999 V2000
  204.0230   70.6600   18.4840 C   0  0  0  0  0  0  0  0  0  0  0  0
  203.2830   71.5800   14.4470 O   0  0  0  0  0  0  0  0  0  0  0  0
  203.3680   70.2320   16.3330 C   0  0  0  0  0  0  0  0  0  0  0  0
  204.4500   69.6250   14.0090 C   0  0  0  0  0  0  0  0  0  0  0  0
  202.2330   69.6400   16.7170 N   0  0  0  0  0  0  0  0  0  0  0  0
  205.8520   69.6300   14.5330 C   0  0  0  0  0  0  0  0  0  0  0  0
  202.8160   70.1300   18.9300 C   0  0  0  0  0  0  0  0  0  0  0  0
  201.9560   69.5900   18.0220 C   0  0  0  0  0  0  0  0  0  0  0  0
  204.3060   70.6390   17.1870 N   0  0  0  0  0  0  0  0  0  0  0  0
  203.5870   70.5070   14.8630 C   0  0  0  0  0  0  0  0  0  0  0  0
  1  7  2  0  0  0  0
  1  9  1  0  0  0  0
  2 10  2  0  0  0  0
  3  5  1  0  0  0  0
  3  9  2  0  0  0  0
  3 10  1  0  0  0  0
  4  6  1  0  0  0  0
  4 10  1  0  0  0  0
  5  8  2  0  0  0  0
  7  8  1  0  0  0  0
M  END
>  <Original_Directory>
3ets_B_rec_3ett_npo_lig_tt_docked_9_pocket10

>  <Original_Filename>
3ets_B_rec_3ett_npo_lig_tt_docked_9_pocket10_gen_sample_9.sdf

>  <Molecule_ID>
sample_9

>  <logS>
-0.6336

$$$$