/tmp/tmpa30ce7hn
  MOE2022           3D

 35 39  0  0  1  0  0  0  0  0999 V2000
  -10.6670  -22.5860   32.7170 C   0  0  0  0  0  0  0  0  0  0  0  0
  -12.0370  -23.5930   34.5260 C   0  0  0  0  0  0  0  0  0  0  0  0
   -9.0230  -24.3970   34.8680 C   0  0  0  0  0  0  0  0  0  0  0  0
  -13.3440  -23.5600   36.9750 C   0  0  0  0  0  0  0  0  0  0  0  0
   -7.9980  -25.5070   34.6600 C   0  0  3  0  0  0  0  0  0  0  0  0
   -8.7860  -24.6670   38.8570 C   0  0  0  0  0  0  0  0  0  0  0  0
   -8.6010  -26.5380   33.7090 C   0  0  0  0  0  0  0  0  0  0  0  0
   -9.1900  -26.4010   40.6760 C   0  0  0  0  0  0  0  0  0  0  0  0
  -10.1490  -25.8200   41.5170 C   0  0  0  0  0  0  0  0  0  0  0  0
  -10.4730  -24.4620   41.5100 C   0  0  0  0  0  0  0  0  0  0  0  0
  -11.0480  -23.7440   33.5390 N   0  0  0  0  0  0  0  0  0  0  0  0
   -7.3520  -25.4400   37.0010 C   0  0  0  0  0  0  0  0  0  0  0  0
   -9.7890  -25.8440   33.1080 C   0  0  0  0  0  0  0  0  0  0  0  0
  -12.9000  -24.6580   34.8750 C   0  0  0  0  0  0  0  0  0  0  0  0
   -9.7290  -23.0980   28.4970 C   0  0  0  0  0  0  0  0  0  0  0  0
   -7.8190  -26.1510   35.9180 O   0  0  0  0  0  0  0  0  0  0  0  0
  -10.3000  -23.5560   40.4890 C   0  0  0  0  0  0  0  0  0  0  0  0
  -12.1130  -22.3970   35.2620 C   0  0  0  0  0  0  0  0  0  0  0  0
   -9.6770  -23.6700   39.2630 C   0  0  0  0  0  0  0  0  0  0  0  0
   -8.2100  -21.4550   29.3040 O   0  0  0  0  0  0  0  0  0  0  0  0
  -10.0510  -24.6470   33.8060 C   0  0  3  0  0  0  0  0  0  0  0  0
  -11.7940  -21.1920   30.1100 C   0  0  0  0  0  0  0  0  0  0  0  0
  -11.3770  -23.6060   30.4080 C   0  0  3  0  0  0  0  0  0  0  0  0
  -10.4310  -26.2790   32.1580 O   0  0  0  0  0  0  0  0  0  0  0  0
  -13.4340  -24.6840   36.1580 C   0  0  0  0  0  0  0  0  0  0  0  0
  -10.4700  -24.1680   29.2880 C   0  0  0  0  0  0  0  0  0  0  0  0
   -8.2190  -24.5560   37.5740 N   0  0  0  0  0  0  0  0  0  0  0  0
  -10.3380  -21.4940   30.4680 C   0  0  3  0  0  0  0  0  0  0  0  0
  -13.2850  -25.7630   33.9230 C   0  0  0  0  0  0  0  0  0  0  0  0
   -9.5950  -21.7240   29.1410 C   0  0  3  0  0  0  0  0  0  0  0  0
   -6.2370  -25.6910   37.4260 O   0  0  0  0  0  0  0  0  0  0  0  0
   -8.4780  -25.7500   39.6780 C   0  0  0  0  0  0  0  0  0  0  0  0
  -12.4010  -22.5880   29.9150 C   0  0  0  0  0  0  0  0  0  0  0  0
  -12.7530  -22.3900   36.4980 C   0  0  0  0  0  0  0  0  0  0  0  0
  -10.3540  -22.8100   31.2440 C   0  0  3  0  0  0  0  0  0  0  0  0
  1 11  1  0  0  0  0
  1 35  1  0  0  0  0
  2 11  1  0  0  0  0
  2 14  2  0  0  0  0
  2 18  1  0  0  0  0
  3  5  1  0  0  0  0
  3 21  1  0  0  0  0
  4 25  2  0  0  0  0
  4 34  1  0  0  0  0
  5  7  1  0  0  0  0
  5 16  1  0  0  0  0
  6 19  2  0  0  0  0
  6 27  1  0  0  0  0
  6 32  1  0  0  0  0
  7 13  1  0  0  0  0
  8  9  2  0  0  0  0
  8 32  1  0  0  0  0
  9 10  1  0  0  0  0
 10 17  2  0  0  0  0
 11 21  1  0  0  0  0
 12 16  1  0  0  0  0
 12 27  1  0  0  0  0
 12 31  2  0  0  0  0
 13 21  1  0  0  0  0
 13 24  2  0  0  0  0
 14 25  1  0  0  0  0
 14 29  1  0  0  0  0
 15 26  1  0  0  0  0
 15 30  1  0  0  0  0
 17 19  1  0  0  0  0
 18 34  2  0  0  0  0
 20 30  1  0  0  0  0
 22 28  1  0  0  0  0
 22 33  1  0  0  0  0
 23 26  1  0  0  0  0
 23 33  1  0  0  0  0
 23 35  1  0  0  0  0
 28 30  1  0  0  0  0
 28 35  1  0  0  0  0
M  END
>  <Original_Directory>
4ajh_B_rec_4ajn_88v_lig_tt_docked_0_pocket10

>  <Original_Filename>
4ajh_B_rec_4ajn_88v_lig_tt_docked_0_pocket10_gen_sample_9.sdf

>  <Molecule_ID>
sample_9

>  <logS>
-5.34446

$$$$