/tmp/tmpy8yxnnkb
  MOE2022           3D

 43 52  0  0  1  0  0  0  0  0999 V2000
   19.9180    6.4960    4.9700 C   0  0  0  0  0  0  0  0  0  0  0  0
   21.2830    6.3490    4.3900 N   0  0  0  0  0  0  0  0  0  0  0  0
   23.1340    9.0930    9.4940 C   0  0  0  0  0  0  0  0  0  0  0  0
   18.0250    4.9330    0.7140 C   0  0  0  0  0  0  0  0  0  0  0  0
   23.0370    8.3250    6.8250 C   0  0  0  0  0  0  0  0  0  0  0  0
   21.7380    5.7680   -1.3570 C   0  0  3  0  0  0  0  0  0  0  0  0
   23.4020    7.7780    9.1470 C   0  0  0  0  0  0  0  0  0  0  0  0
   24.2170    8.4390    2.8030 C   0  0  0  0  0  0  0  0  0  0  0  0
   21.5240    6.0010    2.8880 C   0  0  1  0  0  0  0  0  0  0  0  0
   22.6230    6.4040    2.2280 C   0  0  1  0  0  0  0  0  0  0  0  0
   16.7650    5.9980    7.1490 C   0  0  0  0  0  0  0  0  0  0  0  0
   21.3280    6.4360   -0.0250 C   0  0  3  0  0  0  0  0  0  0  0  0
   22.8950    9.6620    7.1620 C   0  0  0  0  0  0  0  0  0  0  0  0
   20.3180    5.7270    0.8050 C   0  0  3  0  0  0  0  0  0  0  0  0
   24.3230    6.5240    4.0510 O   0  0  0  0  0  0  0  0  0  0  0  0
   17.8120    5.1230    4.9540 C   0  0  0  0  0  0  0  0  0  0  0  0
   22.4870    6.8130   -2.2110 C   0  0  0  0  0  0  0  0  0  0  0  0
   23.7250    7.3500   -1.4730 C   0  0  0  0  0  0  0  0  0  0  0  0
   22.4090    5.2280    2.5880 O   0  0  0  0  0  0  0  0  0  0  0  0
   22.5610    6.8170    0.7350 C   0  0  3  0  0  0  0  0  0  0  0  0
   14.0970    5.7710    9.8630 C   0  0  0  0  0  0  0  0  0  0  0  0
   23.0490    7.8540    5.4510 C   0  0  3  0  0  0  0  0  0  0  0  0
   14.0750    6.4000   11.1370 O   0  0  0  0  0  0  0  0  0  0  0  0
   20.4520    5.3280   -2.0670 C   0  0  0  0  0  0  0  0  0  0  0  0
   23.3800    7.7290   -0.0410 C   0  0  3  0  0  0  0  0  0  0  0  0
   24.4460    7.6390    4.9410 C   0  0  3  0  0  0  0  0  0  0  0  0
   22.9110   10.0390    8.5050 C   0  0  0  0  0  0  0  0  0  0  0  0
   17.8640    5.2860    2.0460 C   0  0  0  0  0  0  0  0  0  0  0  0
   23.7030    8.9970    0.4390 C   0  0  0  0  0  0  0  0  0  0  0  0
   19.6670    4.3590   -1.1740 C   0  0  0  0  0  0  0  0  0  0  0  0
   16.3050    5.7040    8.5150 C   0  0  0  0  0  0  0  0  0  0  0  0
   16.9980    4.9470    9.3400 N   0  0  0  0  0  0  0  0  0  0  0  0
   20.2390    5.8390    2.2010 N   0  0  0  0  0  0  0  0  0  0  0  0
   24.8940    8.8330    4.0920 C   0  0  0  0  0  0  0  0  0  0  0  0
   21.7950    7.7630    4.6050 C   0  0  0  0  0  0  0  0  0  0  0  0
   15.1090    6.4840    8.9680 C   0  0  0  0  0  0  0  0  0  0  0  0
   17.3600    5.2830    6.2360 C   0  0  0  0  0  0  0  0  0  0  0  0
   18.8700    5.7180    4.2610 C   0  0  0  0  0  0  0  0  0  0  0  0
   23.3110    7.3870    7.8160 C   0  0  0  0  0  0  0  0  0  0  0  0
   18.9830    5.6380    2.8350 C   0  0  0  0  0  0  0  0  0  0  0  0
   23.8010    7.0840    2.8970 C   0  0  3  0  0  0  0  0  0  0  0  0
   19.2760    5.0690    0.1180 C   0  0  0  0  0  0  0  0  0  0  0  0
   24.0690    9.2780    1.7350 C   0  0  0  0  0  0  0  0  0  0  0  0
  1  2  1  0  0  0  0
  1 38  1  0  0  0  0
  2  9  1  0  0  0  0
  2 35  1  0  0  0  0
  3  7  2  0  0  0  0
  3 27  1  0  0  0  0
  4 28  1  0  0  0  0
  4 42  2  0  0  0  0
  5 13  1  0  0  0  0
  5 22  1  0  0  0  0
  5 39  2  0  0  0  0
  6 12  1  0  0  0  0
  6 17  1  0  0  0  0
  6 24  1  0  0  0  0
  7 39  1  0  0  0  0
  8 34  1  0  0  0  0
  8 41  1  0  0  0  0
  8 43  2  0  0  0  0
  9 10  1  0  0  0  0
  9 19  1  0  0  0  0
  9 33  1  0  0  0  0
 10 19  1  0  0  0  0
 10 20  1  0  0  0  0
 10 41  1  0  0  0  0
 11 31  1  0  0  0  0
 11 37  2  0  0  0  0
 12 14  1  0  0  0  0
 12 20  1  0  0  0  0
 13 27  2  0  0  0  0
 14 33  1  0  0  0  0
 14 42  1  0  0  0  0
 15 26  1  0  0  0  0
 15 41  1  0  0  0  0
 16 37  1  0  0  0  0
 16 38  2  0  0  0  0
 17 18  1  0  0  0  0
 18 25  1  0  0  0  0
 20 25  1  0  0  0  0
 21 23  1  0  0  0  0
 21 36  1  0  0  0  0
 22 26  1  0  0  0  0
 22 35  1  0  0  0  0
 24 30  1  0  0  0  0
 25 29  1  0  0  0  0
 26 34  1  0  0  0  0
 28 40  2  0  0  0  0
 29 43  1  0  0  0  0
 30 42  1  0  0  0  0
 31 32  2  0  0  0  0
 31 36  1  0  0  0  0
 33 40  1  0  0  0  0
 38 40  1  0  0  0  0
M  END
>  <Original_Directory>
4ot6_A_rec_4otf_2vl_lig_tt_docked_0_pocket10

>  <Original_Filename>
4ot6_A_rec_4otf_2vl_lig_tt_docked_0_pocket10_gen_sample_4.sdf

>  <Molecule_ID>
sample_4

>  <logS>
-7.4721098

$$$$