/tmp/tmpq6vwb8ox
  MOE2022           3D

  6  6  0  0  0  0  0  0  0  0999 V2000
    1.6610  -38.5500   19.4530 N   0  0  0  0  0  0  0  0  0  0  0  0
    0.3980  -38.9930   21.0900 N   0  0  0  0  0  0  0  0  0  0  0  0
    1.4640  -38.3060   21.6220 C   0  0  0  0  0  0  0  0  0  0  0  0
   -0.6410  -38.7910   19.0710 O   0  0  0  0  0  0  0  0  0  0  0  0
    0.3140  -38.5330   19.7970 C   0  0  0  0  0  0  0  0  0  0  0  0
    2.3630  -38.3020   20.6170 C   0  0  0  0  0  0  0  0  0  0  0  0
  1  5  1  0  0  0  0
  1  6  1  0  0  0  0
  2  3  1  0  0  0  0
  2  5  1  0  0  0  0
  3  6  1  0  0  0  0
  4  5  2  0  0  0  0
M  END
>  <Original_Directory>
3rv8_A_rec_2g5f_pyr_lig_tt_docked_7_pocket10

>  <Original_Filename>
3rv8_A_rec_2g5f_pyr_lig_tt_docked_7_pocket10_gen_sample_11.sdf

>  <Molecule_ID>
sample_11

>  <logS>
0.24683

$$$$