/tmp/tmpz384nsah
  MOE2022           3D

 25 27  0  0  1  0  0  0  0  0999 V2000
 -154.8010  -70.2940   63.8170 O   0  0  0  0  0  0  0  0  0  0  0  0
 -151.7080  -71.0220   56.4880 C   0  0  0  0  0  0  0  0  0  0  0  0
 -149.9510  -68.5750   63.0570 O   0  0  0  0  0  0  0  0  0  0  0  0
 -149.6070  -72.6910   57.2210 C   0  0  0  0  0  0  0  0  0  0  0  0
 -151.5090  -72.2260   55.8040 C   0  0  0  0  0  0  0  0  0  0  0  0
 -151.5950  -71.7560   61.0230 O   0  0  0  0  0  0  0  0  0  0  0  0
 -151.8820  -69.9190   62.5320 C   0  0  0  0  0  0  0  0  0  0  0  0
 -150.3940  -71.2580   60.6090 C   0  0  3  0  0  0  0  0  0  0  0  0
 -150.4500  -73.0700   56.1480 C   0  0  0  0  0  0  0  0  0  0  0  0
 -154.2200  -69.2760   63.3290 C   0  0  0  0  0  0  0  0  0  0  0  0
 -149.7860  -71.9520   59.5280 C   0  0  3  0  0  0  0  0  0  0  0  0
 -152.3820  -71.0430   61.8820 C   0  0  0  0  0  0  0  0  0  0  0  0
 -147.9840  -73.4420   58.9270 N   0  0  0  0  0  0  0  0  0  0  0  0
 -150.1120  -71.7430   58.1490 C   0  0  0  0  0  0  0  0  0  0  0  0
 -154.8170  -68.3410   62.7450 O   0  0  0  0  0  0  0  0  0  0  0  0
 -151.0210  -70.7750   57.6800 C   0  0  0  0  0  0  0  0  0  0  0  0
 -148.3620  -73.4190   57.5830 C   0  0  0  0  0  0  0  0  0  0  0  0
 -149.2470  -73.9230   60.7640 O   0  0  0  0  0  0  0  0  0  0  0  0
 -150.5430  -69.4960   62.2540 C   0  0  0  0  0  0  0  0  0  0  0  0
 -149.8500  -70.1010   61.1970 C   0  0  0  0  0  0  0  0  0  0  0  0
 -147.5890  -73.8460   56.7350 O   0  0  0  0  0  0  0  0  0  0  0  0
 -146.7900  -73.9900   59.3130 O   0  0  0  0  0  0  0  0  0  0  0  0
 -152.7170  -69.1660   63.4480 C   0  0  3  0  0  0  0  0  0  0  0  0
 -152.2340  -68.6020   64.5010 F   0  0  0  0  0  0  0  0  0  0  0  0
 -148.9960  -73.1640   59.8380 C   0  0  0  0  0  0  0  0  0  0  0  0
  1 10  1  0  0  0  0
  2  5  2  0  0  0  0
  2 16  1  0  0  0  0
  3 19  1  0  0  0  0
  4  9  2  0  0  0  0
  4 14  1  0  0  0  0
  4 17  1  0  0  0  0
  5  9  1  0  0  0  0
  6  8  1  0  0  0  0
  6 12  1  0  0  0  0
  7 12  2  0  0  0  0
  7 19  1  0  0  0  0
  7 23  1  0  0  0  0
  8 11  1  0  0  0  0
  8 20  1  0  0  0  0
 10 15  2  0  0  0  0
 10 23  1  0  0  0  0
 11 14  1  0  0  0  0
 11 25  1  0  0  0  0
 13 17  1  0  0  0  0
 13 22  1  0  0  0  0
 13 25  1  0  0  0  0
 14 16  2  0  0  0  0
 17 21  2  0  0  0  0
 18 25  2  0  0  0  0
 19 20  2  0  0  0  0
 23 24  1  0  0  0  0
M  END
>  <Original_Directory>
2brc_A_rec_1bgq_rdc_lig_tt_min_0_pocket10

>  <Original_Filename>
2brc_A_rec_1bgq_rdc_lig_tt_min_0_pocket10_gen_sample_1.sdf

>  <Molecule_ID>
sample_1

>  <logS>
-2.7314301

$$$$