/tmp/tmpwgffy57u
  MOE2022           3D

 22 26  0  0  1  0  0  0  0  0999 V2000
   -8.4230  -27.0080    2.4970 C   0  0  3  0  0  0  0  0  0  0  0  0
  -16.7760  -28.4770    0.6240 C   0  0  0  0  0  0  0  0  0  0  0  0
  -17.1230  -29.8630    0.0490 C   0  0  3  0  0  0  0  0  0  0  0  0
  -15.7370  -30.4340   -0.1460 C   0  0  0  0  0  0  0  0  0  0  0  0
   -6.9800  -26.4390    4.2510 C   0  0  0  0  0  0  0  0  0  0  0  0
  -15.6190  -28.7860    1.5620 C   0  0  3  0  0  0  0  0  0  0  0  0
  -13.3130  -28.1410    2.0510 C   0  0  0  0  0  0  0  0  0  0  0  0
   -9.3600  -26.2150    4.5960 C   0  0  0  0  0  0  0  0  0  0  0  0
  -10.8380  -27.7780    2.1610 C   0  0  3  0  0  0  0  0  0  0  0  0
  -14.6390  -27.8360    1.6770 C   0  0  0  0  0  0  0  0  0  0  0  0
   -8.5520  -28.1670    3.4860 C   0  0  3  0  0  0  0  0  0  0  0  0
  -15.3420  -30.2570    1.3190 C   0  0  3  0  0  0  0  0  0  0  0  0
  -10.9710  -27.5610    3.5700 O   0  0  0  0  0  0  0  0  0  0  0  0
   -9.7620  -27.6820    4.3190 C   0  0  3  0  0  0  0  0  0  0  0  0
  -16.4910  -30.8850    2.1160 C   0  0  0  0  0  0  0  0  0  0  0  0
  -13.0520  -29.1150    2.7520 O   0  0  0  0  0  0  0  0  0  0  0  0
   -7.2890  -27.9460    4.3500 C   0  0  0  0  0  0  0  0  0  0  0  0
  -17.7060  -30.6090    1.2400 C   0  0  0  0  0  0  0  0  0  0  0  0
   -9.6800  -26.9040    1.6510 C   0  0  0  0  0  0  0  0  0  0  0  0
  -12.1350  -27.3770    1.4660 C   0  0  3  0  0  0  0  0  0  0  0  0
   -8.2470  -25.9440    3.5600 C   0  0  3  0  0  0  0  0  0  0  0  0
  -12.0470  -27.6280    0.0760 O   0  0  0  0  0  0  0  0  0  0  0  0
  1 11  1  0  0  0  0
  1 19  1  0  0  0  0
  1 21  1  0  0  0  0
  2  3  1  0  0  0  0
  2  6  1  0  0  0  0
  3  4  1  0  0  0  0
  3 18  1  0  0  0  0
  4 12  1  0  0  0  0
  5 17  1  0  0  0  0
  5 21  1  0  0  0  0
  6 10  1  0  0  0  0
  6 12  1  0  0  0  0
  7 10  1  0  0  0  0
  7 16  2  0  0  0  0
  7 20  1  0  0  0  0
  8 14  1  0  0  0  0
  8 21  1  0  0  0  0
  9 13  1  0  0  0  0
  9 19  1  0  0  0  0
  9 20  1  0  0  0  0
 11 14  1  0  0  0  0
 11 17  1  0  0  0  0
 12 15  1  0  0  0  0
 13 14  1  0  0  0  0
 15 18  1  0  0  0  0
 20 22  1  0  0  0  0
M  END
>  <Original_Directory>
5f0f_A_rec_4m3g_2g1_lig_tt_docked_0_pocket10

>  <Original_Filename>
5f0f_A_rec_4m3g_2g1_lig_tt_docked_0_pocket10_gen_sample_13.sdf

>  <Molecule_ID>
sample_13

>  <logS>
-4.7543998

$$$$