/tmp/tmpjusvugg3
  MOE2022           3D

 30 36  0  0  1  0  0  0  0  0999 V2000
   53.4010  107.1030   31.0360 C   0  0  0  0  0  0  0  0  0  0  0  0
   53.1610  104.8280   43.7120 C   0  0  3  0  0  0  0  0  0  0  0  0
   54.5230  103.3330   42.1190 C   0  0  0  0  0  0  0  0  0  0  0  0
   53.3670  104.3570   42.2460 C   0  0  1  0  0  0  0  0  0  0  0  0
   54.4600  106.1890   39.3960 C   0  0  0  0  0  0  0  0  0  0  0  0
   53.7400  108.5820   36.5010 C   0  0  0  0  0  0  0  0  0  0  0  0
   52.8320  107.3280   34.6350 C   0  0  0  0  0  0  0  0  0  0  0  0
   52.4160  105.6730   42.7070 C   0  0  3  0  0  0  0  0  0  0  0  0
   53.6510  109.2280   32.6250 C   0  0  3  0  0  0  0  0  0  0  0  0
   54.4610  110.5110   34.4280 O   0  0  0  0  0  0  0  0  0  0  0  0
   54.9480  100.8980   42.9600 C   0  0  0  0  0  0  0  0  0  0  0  0
   53.0310  108.0580   39.0820 C   0  0  0  0  0  0  0  0  0  0  0  0
   53.2740  104.6790   30.4430 C   0  0  0  0  0  0  0  0  0  0  0  0
   53.2470  107.8210   32.3340 C   0  0  0  0  0  0  0  0  0  0  0  0
   53.5020  108.4530   35.0620 C   0  0  3  0  0  0  0  0  0  0  0  0
   53.2150  106.0450   40.2870 C   0  0  3  0  0  0  0  0  0  0  0  0
   52.7020  103.6670   44.5770 C   0  0  0  0  0  0  0  0  0  0  0  0
   52.7590  105.5470   32.7650 C   0  0  0  0  0  0  0  0  0  0  0  0
   53.8900  109.4790   34.0950 C   0  0  0  0  0  0  0  0  0  0  0  0
   52.5830  107.4440   40.3720 C   0  0  0  0  0  0  0  0  0  0  0  0
   52.6590  109.2770   38.5310 C   0  0  0  0  0  0  0  0  0  0  0  0
   53.9990  107.2830   38.4770 C   0  0  0  0  0  0  0  0  0  0  0  0
   52.5130  110.1240   32.1610 C   0  0  0  0  0  0  0  0  0  0  0  0
   53.5830  105.7880   41.7400 C   0  0  3  0  0  0  0  0  0  0  0  0
   54.4610  107.5990   37.1990 C   0  0  0  0  0  0  0  0  0  0  0  0
   53.6310  102.4670   44.4480 C   0  0  0  0  0  0  0  0  0  0  0  0
   53.0960  109.5810   37.2400 C   0  0  0  0  0  0  0  0  0  0  0  0
   52.8210  106.9570   33.3030 C   0  0  0  0  0  0  0  0  0  0  0  0
   54.2010  102.2120   43.0800 C   0  0  3  0  0  0  0  0  0  0  0  0
   52.6320  105.7910   31.2600 C   0  0  3  0  0  0  0  0  0  0  0  0
  1 14  1  0  0  0  0
  1 30  1  0  0  0  0
  2  4  1  0  0  0  0
  2  8  1  0  0  0  0
  2 17  1  0  0  0  0
  3  4  1  0  0  0  0
  3 29  1  0  0  0  0
  4  8  1  0  0  0  0
  4 24  1  0  0  0  0
  5 16  1  0  0  0  0
  5 22  1  0  0  0  0
  6 15  1  0  0  0  0
  6 25  1  0  0  0  0
  6 27  2  0  0  0  0
  7 15  1  0  0  0  0
  7 28  1  0  0  0  0
  8 24  1  0  0  0  0
  9 14  1  0  0  0  0
  9 19  1  0  0  0  0
  9 23  1  0  0  0  0
 10 19  2  0  0  0  0
 11 29  1  0  0  0  0
 12 20  1  0  0  0  0
 12 21  2  0  0  0  0
 12 22  1  0  0  0  0
 13 30  1  0  0  0  0
 14 28  2  0  0  0  0
 15 19  1  0  0  0  0
 16 20  1  0  0  0  0
 16 24  1  0  0  0  0
 17 26  1  0  0  0  0
 18 28  1  0  0  0  0
 18 30  1  0  0  0  0
 21 27  1  0  0  0  0
 22 25  2  0  0  0  0
 26 29  1  0  0  0  0
M  END
>  <Original_Directory>
4muw_A_rec_4phw_2w1_lig_tt_min_0_pocket10

>  <Original_Filename>
4muw_A_rec_4phw_2w1_lig_tt_min_0_pocket10_gen_sample_2.sdf

>  <Molecule_ID>
sample_2

>  <logS>
-9.5271702

$$$$