/tmp/tmpj5ewlo2m
  MOE2022           3D

 12 13  0  0  1  0  0  0  0  0999 V2000
    2.8950   30.7860   23.9150 C   0  0  0  0  0  0  0  0  0  0  0  0
    1.6000   30.9250   23.3630 O   0  0  0  0  0  0  0  0  0  0  0  0
    1.0480   31.9320   24.1260 C   0  0  3  0  0  0  0  0  0  0  0  0
   -0.0940   34.7880   22.4980 C   0  0  0  0  0  0  0  0  0  0  0  0
   -0.4440   36.8380   23.6970 N   0  0  0  0  0  0  0  0  0  0  0  0
   -0.9270   36.1200   24.7520 C   0  0  0  0  0  0  0  0  0  0  0  0
   -0.2550   32.5670   23.7240 C   0  0  0  0  0  0  0  0  0  0  0  0
   -0.8760   34.7430   24.7630 C   0  0  0  0  0  0  0  0  0  0  0  0
   -0.3080   34.0810   23.6850 C   0  0  0  0  0  0  0  0  0  0  0  0
    1.6210   31.8370   25.3630 C   0  0  0  0  0  0  0  0  0  0  0  0
   -0.2090   36.1710   22.5290 C   0  0  0  0  0  0  0  0  0  0  0  0
    2.7020   30.9590   25.2610 C   0  0  0  0  0  0  0  0  0  0  0  0
  1  2  1  0  0  0  0
  1 12  1  0  0  0  0
  2  3  1  0  0  0  0
  3  7  1  0  0  0  0
  3 10  1  0  0  0  0
  4  9  2  0  0  0  0
  4 11  1  0  0  0  0
  5  6  1  0  0  0  0
  5 11  2  0  0  0  0
  6  8  2  0  0  0  0
  7  9  1  0  0  0  0
  8  9  1  0  0  0  0
 10 12  1  0  0  0  0
M  END
>  <Original_Directory>
2r2w_U_rec_1c5y_esp_lig_tt_min_0_pocket10

>  <Original_Filename>
2r2w_U_rec_1c5y_esp_lig_tt_min_0_pocket10_gen_sample_17.sdf

>  <Molecule_ID>
sample_17

>  <logS>
-0.85679001

$$$$