/tmp/tmpufiiu7p1
  MOE2022           3D

 22 25  0  0  1  0  0  0  0  0999 V2000
  -16.3280  -30.5270   -1.7700 C   0  0  0  0  0  0  0  0  0  0  0  0
  -11.3060  -27.6490    1.3690 C   0  0  0  0  0  0  0  0  0  0  0  0
  -10.0680  -27.6630    1.9850 C   0  0  0  0  0  0  0  0  0  0  0  0
   -7.5980  -26.7950    3.6000 O   0  0  0  0  0  0  0  0  0  0  0  0
  -12.5570  -27.6800    2.0070 C   0  0  3  0  0  0  0  0  0  0  0  0
   -8.8050  -26.5680    3.8580 C   0  0  0  0  0  0  0  0  0  0  0  0
  -16.1990  -31.1730    1.4250 C   0  0  0  0  0  0  0  0  0  0  0  0
   -9.1630  -25.6250    4.6060 O   0  0  0  0  0  0  0  0  0  0  0  0
  -14.8750  -28.7890    2.1130 C   0  0  0  0  0  0  0  0  0  0  0  0
  -14.0080  -29.2070    3.0750 N   0  0  0  0  0  0  0  0  0  0  0  0
  -15.7630  -29.7350    1.3900 C   0  0  3  0  0  0  0  0  0  0  0  0
   -9.8730  -27.5000    3.3510 C   0  0  0  0  0  0  0  0  0  0  0  0
  -17.3980  -31.2850    0.4690 C   0  0  3  0  0  0  0  0  0  0  0  0
  -16.6160  -29.0450    0.3310 C   0  0  3  0  0  0  0  0  0  0  0  0
  -11.9160  -28.6540    4.1880 C   0  0  0  0  0  0  0  0  0  0  0  0
  -17.9180  -29.8520    0.3740 C   0  0  0  0  0  0  0  0  0  0  0  0
  -12.8190  -28.5010    3.1270 C   0  0  0  0  0  0  0  0  0  0  0  0
  -13.6730  -26.9390    1.5730 C   0  0  0  0  0  0  0  0  0  0  0  0
  -10.5980  -28.2520    4.2590 C   0  0  0  0  0  0  0  0  0  0  0  0
  -16.8470  -31.6770   -0.9180 C   0  0  0  0  0  0  0  0  0  0  0  0
  -15.8960  -29.2760   -1.0070 C   0  0  0  0  0  0  0  0  0  0  0  0
  -14.9010  -27.4780    1.7340 N   0  0  0  0  0  0  0  0  0  0  0  0
  1 20  1  0  0  0  0
  1 21  1  0  0  0  0
  2  3  2  0  0  0  0
  2  5  1  0  0  0  0
  3 12  1  0  0  0  0
  4  6  2  0  0  0  0
  5 17  1  0  0  0  0
  5 18  1  0  0  0  0
  6  8  1  0  0  0  0
  6 12  1  0  0  0  0
  7 11  1  0  0  0  0
  7 13  1  0  0  0  0
  9 10  2  0  0  0  0
  9 11  1  0  0  0  0
  9 22  1  0  0  0  0
 10 17  1  0  0  0  0
 11 14  1  0  0  0  0
 12 19  2  0  0  0  0
 13 16  1  0  0  0  0
 13 20  1  0  0  0  0
 14 16  1  0  0  0  0
 14 21  1  0  0  0  0
 15 17  2  0  0  0  0
 15 19  1  0  0  0  0
 18 22  1  0  0  0  0
M  END
>  <Original_Directory>
5mym_B_rec_5myl_q2n_lig_tt_docked_3_pocket10

>  <Original_Filename>
5mym_B_rec_5myl_q2n_lig_tt_docked_3_pocket10_gen_sample_9.sdf

>  <Molecule_ID>
sample_9

>  <logS>
-4.2834001

$$$$