/tmp/tmp5_4efc6p
  MOE2022           3D

 13 14  0  0  0  0  0  0  0  0999 V2000
   29.5260   46.1130   18.9420 C   0  0  0  0  0  0  0  0  0  0  0  0
   28.9510   44.7440   19.2960 C   0  0  0  0  0  0  0  0  0  0  0  0
   27.9090   43.2190   15.6050 C   0  0  0  0  0  0  0  0  0  0  0  0
   27.9440   44.8750   20.4330 C   0  0  0  0  0  0  0  0  0  0  0  0
   29.1040   46.9000   21.3060 C   0  0  0  0  0  0  0  0  0  0  0  0
   28.1830   42.8880   17.9060 O   0  0  0  0  0  0  0  0  0  0  0  0
   28.5430   45.5380   21.6640 C   0  0  0  0  0  0  0  0  0  0  0  0
   30.0770   43.7780   19.6700 C   0  0  0  0  0  0  0  0  0  0  0  0
   27.8480   45.0380   17.1170 N   0  0  0  0  0  0  0  0  0  0  0  0
   27.7560   42.4130   16.7050 C   0  0  0  0  0  0  0  0  0  0  0  0
   28.2330   44.2100   18.0810 C   0  0  0  0  0  0  0  0  0  0  0  0
   27.6500   44.5520   15.8930 C   0  0  0  0  0  0  0  0  0  0  0  0
   30.0900   46.8070   20.1670 C   0  0  0  0  0  0  0  0  0  0  0  0
  1  2  1  0  0  0  0
  1 13  1  0  0  0  0
  2  4  1  0  0  0  0
  2  8  1  0  0  0  0
  2 11  1  0  0  0  0
  3 10  1  0  0  0  0
  3 12  1  0  0  0  0
  4  7  1  0  0  0  0
  5  7  1  0  0  0  0
  5 13  1  0  0  0  0
  6 10  1  0  0  0  0
  6 11  1  0  0  0  0
  9 11  2  0  0  0  0
  9 12  1  0  0  0  0
M  END
>  <Original_Directory>
3kqy_B_rec_1n7i_ly1_lig_tt_docked_0_pocket10

>  <Original_Filename>
3kqy_B_rec_1n7i_ly1_lig_tt_docked_0_pocket10_gen_sample_9.sdf

>  <Molecule_ID>
sample_9

>  <logS>
-2.50038

$$$$