/tmp/tmp3w7zvjkp
  MOE2022           3D

  8  8  0  0  1  0  0  0  0  0999 V2000
   22.6880   15.3050   27.4020 C   0  0  0  0  0  0  0  0  0  0  0  0
   21.8610   16.5540   29.2600 O   0  0  0  0  0  0  0  0  0  0  0  0
   21.8580   16.5000   27.8340 C   0  0  3  0  0  0  0  0  0  0  0  0
   22.5230   17.7440   27.2690 C   0  0  0  0  0  0  0  0  0  0  0  0
   23.6270   15.8040   26.3240 C   0  0  0  0  0  0  0  0  0  0  0  0
   23.9710   17.9400   25.3550 O   0  0  0  0  0  0  0  0  0  0  0  0
   24.9100   17.5260   27.4070 O   0  0  0  0  0  0  0  0  0  0  0  0
   23.8070   17.2840   26.5930 C   0  0  0  0  0  0  0  0  0  0  0  0
  1  3  1  0  0  0  0
  1  5  1  0  0  0  0
  2  3  1  0  0  0  0
  3  4  1  0  0  0  0
  4  8  1  0  0  0  0
  5  8  1  0  0  0  0
  6  8  1  0  0  0  0
  7  8  1  0  0  0  0
M  END
>  <Original_Directory>
2ok6_A_rec_2ok6_bez_lig_tt_min_0_pocket10

>  <Original_Filename>
2ok6_A_rec_2ok6_bez_lig_tt_min_0_pocket10_gen_sample_7.sdf

>  <Molecule_ID>
sample_7

>  <logS>
0.20697001

$$$$