/tmp/tmpx1hn9dap
  MOE2022           3D

 26 28  0  0  1  0  0  0  0  0999 V2000
   31.0440   53.1720   21.9090 C   0  0  0  0  0  0  0  0  0  0  0  0
   30.1440   53.4260   25.4750 C   0  0  0  0  0  0  0  0  0  0  0  0
   32.1080   54.0350   22.0230 O   0  0  0  0  0  0  0  0  0  0  0  0
   30.3420   53.8520   24.0840 N   0  0  0  0  0  0  0  0  0  0  0  0
   27.2940   56.4990   26.9220 C   0  0  0  0  0  0  0  0  0  0  0  0
   28.3980   51.3580   16.8750 C   0  0  0  0  0  0  0  0  0  0  0  0
   29.2700   51.1270   19.2540 C   0  0  0  0  0  0  0  0  0  0  0  0
   28.9490   54.7210   27.3130 C   0  0  0  0  0  0  0  0  0  0  0  0
   26.9790   51.7440   16.4500 C   0  0  3  0  0  0  0  0  0  0  0  0
   28.0600   56.2460   24.6600 N   0  0  0  0  0  0  0  0  0  0  0  0
   30.1980   53.0090   23.0040 C   0  0  0  0  0  0  0  0  0  0  0  0
   30.1590   55.2800   23.8920 C   0  0  0  0  0  0  0  0  0  0  0  0
   27.9250   55.5630   27.7010 C   0  0  0  0  0  0  0  0  0  0  0  0
   28.7990   52.0660   18.1620 C   0  0  0  0  0  0  0  0  0  0  0  0
   29.5910   51.8060   20.5590 C   0  0  0  0  0  0  0  0  0  0  0  0
   25.2440   53.6520   17.2830 C   0  0  0  0  0  0  0  0  0  0  0  0
   26.1900   50.5680   16.3890 O   0  0  0  0  0  0  0  0  0  0  0  0
   24.1320   53.1180   17.1640 O   0  0  0  0  0  0  0  0  0  0  0  0
   27.2440   56.7620   25.5850 C   0  0  0  0  0  0  0  0  0  0  0  0
   26.4500   52.7470   17.4490 C   0  0  0  0  0  0  0  0  0  0  0  0
   28.7360   51.6680   21.6410 C   0  0  0  0  0  0  0  0  0  0  0  0
   25.2670   54.7920   17.7440 O   0  0  0  0  0  0  0  0  0  0  0  0
   30.7720   52.5220   20.7070 C   0  0  0  0  0  0  0  0  0  0  0  0
   29.3470   54.5780   25.9920 C   0  0  0  0  0  0  0  0  0  0  0  0
   29.1030   52.1560   22.8890 C   0  0  0  0  0  0  0  0  0  0  0  0
   29.1570   55.5130   24.9590 C   0  0  0  0  0  0  0  0  0  0  0  0
  1  3  1  0  0  0  0
  1 11  1  0  0  0  0
  1 23  2  0  0  0  0
  2  4  1  0  0  0  0
  2 24  1  0  0  0  0
  4 11  1  0  0  0  0
  4 12  1  0  0  0  0
  5 13  1  0  0  0  0
  5 19  2  0  0  0  0
  6  9  1  0  0  0  0
  6 14  1  0  0  0  0
  7 14  1  0  0  0  0
  7 15  1  0  0  0  0
  8 13  1  0  0  0  0
  8 24  2  0  0  0  0
  9 17  1  0  0  0  0
  9 20  1  0  0  0  0
 10 19  1  0  0  0  0
 10 26  2  0  0  0  0
 11 25  2  0  0  0  0
 12 26  1  0  0  0  0
 15 21  2  0  0  0  0
 15 23  1  0  0  0  0
 16 18  2  0  0  0  0
 16 20  1  0  0  0  0
 16 22  1  0  0  0  0
 21 25  1  0  0  0  0
 24 26  1  0  0  0  0
M  END
>  <Original_Directory>
3kqo_A_rec_1n7j_sah_lig_tt_docked_0_pocket10

>  <Original_Filename>
3kqo_A_rec_1n7j_sah_lig_tt_docked_0_pocket10_gen_sample_12.sdf

>  <Molecule_ID>
sample_12

>  <logS>
-2.7712801

$$$$