/tmp/tmpdgl1vr_n
  MOE2022           3D

 18 19  0  0  0  0  0  0  0  0999 V2000
  -18.9770  -12.6140  -44.8250 O   0  0  0  0  0  0  0  0  0  0  0  0
  -13.9670  -12.0800  -47.5500 C   0  0  0  0  0  0  0  0  0  0  0  0
  -16.4790  -13.3080  -47.3690 C   0  0  0  0  0  0  0  0  0  0  0  0
  -16.3190  -13.1430  -45.9810 C   0  0  0  0  0  0  0  0  0  0  0  0
  -20.4480  -15.2020  -43.7660 O   0  0  0  0  0  0  0  0  0  0  0  0
  -16.8160  -14.5940  -47.8240 C   0  0  0  0  0  0  0  0  0  0  0  0
  -18.4970  -14.0420  -43.0170 C   0  0  0  0  0  0  0  0  0  0  0  0
  -17.1440  -14.0260  -45.2270 C   0  0  0  0  0  0  0  0  0  0  0  0
  -16.8140  -15.5710  -46.8730 C   0  0  0  0  0  0  0  0  0  0  0  0
  -15.3600  -11.8780  -44.2050 O   0  0  0  0  0  0  0  0  0  0  0  0
  -15.2450  -12.4070  -45.4640 C   0  0  0  0  0  0  0  0  0  0  0  0
  -14.1120  -12.1380  -46.1820 C   0  0  0  0  0  0  0  0  0  0  0  0
  -19.7370  -14.8040  -42.6020 C   0  0  0  0  0  0  0  0  0  0  0  0
  -16.2480  -12.2490  -48.2470 C   0  0  0  0  0  0  0  0  0  0  0  0
  -15.0020  -11.6890  -48.3910 C   0  0  0  0  0  0  0  0  0  0  0  0
  -12.8100  -12.4860  -48.1230 O   0  0  0  0  0  0  0  0  0  0  0  0
  -17.0460  -15.3160  -45.5740 N   0  0  0  0  0  0  0  0  0  0  0  0
  -18.2820  -13.5150  -44.4110 C   0  0  0  0  0  0  0  0  0  0  0  0
  1 18  2  0  0  0  0
  2 12  1  0  0  0  0
  2 15  2  0  0  0  0
  2 16  1  0  0  0  0
  3  4  1  0  0  0  0
  3  6  1  0  0  0  0
  3 14  2  0  0  0  0
  4  8  1  0  0  0  0
  4 11  2  0  0  0  0
  5 13  1  0  0  0  0
  6  9  2  0  0  0  0
  7 13  1  0  0  0  0
  7 18  1  0  0  0  0
  8 17  2  0  0  0  0
  8 18  1  0  0  0  0
  9 17  1  0  0  0  0
 10 11  1  0  0  0  0
 11 12  1  0  0  0  0
 14 15  1  0  0  0  0
M  END
>  <Original_Directory>
5fxt_A_rec_5g48_1fl_lig_tt_min_0_pocket10

>  <Original_Filename>
5fxt_A_rec_5g48_1fl_lig_tt_min_0_pocket10_gen_sample_4.sdf

>  <Molecule_ID>
sample_4

>  <logS>
-1.36436

$$$$