/tmp/tmpvfy4es4m
  MOE2022           3D

 32 36  0  0  1  0  0  0  0  0999 V2000
   -8.7580  -34.9710    3.4050 C   0  0  3  0  0  0  0  0  0  0  0  0
   -7.8400  -34.3840    2.3270 C   0  0  0  0  0  0  0  0  0  0  0  0
   -0.9420  -29.3280    7.3480 C   0  0  0  0  0  0  0  0  0  0  0  0
  -10.7270  -35.2810    1.9570 C   0  0  0  0  0  0  0  0  0  0  0  0
   -2.4390  -28.2880    5.7800 C   0  0  0  0  0  0  0  0  0  0  0  0
  -10.0540  -35.2120    3.2120 C   0  0  0  0  0  0  0  0  0  0  0  0
   -7.2340  -34.3400    5.1400 N   0  0  0  0  0  0  0  0  0  0  0  0
   -6.9520  -27.1420    5.3000 C   0  0  0  0  0  0  0  0  0  0  0  0
   -3.2980  -29.2000    7.8670 C   0  0  0  0  0  0  0  0  0  0  0  0
   -8.4920  -36.1750    5.3880 O   0  0  0  0  0  0  0  0  0  0  0  0
   -7.4960  -32.9340    4.8270 C   0  0  0  0  0  0  0  0  0  0  0  0
   -1.9160  -28.9750    8.4900 C   0  0  0  0  0  0  0  0  0  0  0  0
   -6.4070  -29.5330    5.6590 C   0  0  0  0  0  0  0  0  0  0  0  0
   -5.9190  -34.8030    5.5880 C   0  0  0  0  0  0  0  0  0  0  0  0
   -5.4370  -32.4450    6.2060 C   0  0  0  0  0  0  0  0  0  0  0  0
   -2.9460  -29.5790    6.4340 C   0  0  0  0  0  0  0  0  0  0  0  0
   -1.0550  -28.1080    6.4230 C   0  0  0  0  0  0  0  0  0  0  0  0
   -7.1720  -30.7200    5.8700 C   0  0  0  0  0  0  0  0  0  0  0  0
   -5.6170  -27.8030    3.3860 C   0  0  0  0  0  0  0  0  0  0  0  0
   -6.9540  -28.3080    6.0450 C   0  0  0  0  0  0  0  0  0  0  0  0
  -11.8940  -34.9280    1.8030 O   0  0  0  0  0  0  0  0  0  0  0  0
   -4.8560  -28.8420    3.8850 C   0  0  0  0  0  0  0  0  0  0  0  0
   -7.2590  -26.1100    3.1970 N   0  0  0  0  0  0  0  0  0  0  0  0
   -5.1080  -29.5850    5.0370 C   0  0  0  0  0  0  0  0  0  0  0  0
   -8.1490  -35.2380    4.6880 C   0  0  0  0  0  0  0  0  0  0  0  0
   -9.9860  -35.4940    0.8910 F   0  0  0  0  0  0  0  0  0  0  0  0
   -4.2870  -31.6930    6.2510 C   0  0  0  0  0  0  0  0  0  0  0  0
   -3.9570  -30.3930    5.6310 C   0  0  0  0  0  0  0  0  0  0  0  0
   -6.6080  -27.0320    3.9710 C   0  0  0  0  0  0  0  0  0  0  0  0
   -5.3320  -33.8930    6.6580 C   0  0  0  0  0  0  0  0  0  0  0  0
   -6.6670  -31.9900    5.6680 C   0  0  0  0  0  0  0  0  0  0  0  0
   -1.6990  -30.3540    6.5880 N   0  0  0  0  0  0  0  0  0  0  0  0
  1  2  1  0  0  0  0
  1  6  1  0  0  0  0
  1 25  1  0  0  0  0
  3 12  1  0  0  0  0
  3 17  1  0  0  0  0
  3 32  1  0  0  0  0
  4  6  1  0  0  0  0
  4 21  2  0  0  0  0
  4 26  1  0  0  0  0
  5 16  1  0  0  0  0
  5 17  1  0  0  0  0
  7 11  1  0  0  0  0
  7 14  1  0  0  0  0
  7 25  1  0  0  0  0
  8 20  1  0  0  0  0
  8 29  2  0  0  0  0
  9 12  1  0  0  0  0
  9 16  1  0  0  0  0
 10 25  2  0  0  0  0
 11 31  1  0  0  0  0
 13 18  1  0  0  0  0
 13 20  2  0  0  0  0
 13 24  1  0  0  0  0
 14 30  1  0  0  0  0
 15 27  2  0  0  0  0
 15 30  1  0  0  0  0
 15 31  1  0  0  0  0
 16 28  1  0  0  0  0
 16 32  1  0  0  0  0
 18 31  2  0  0  0  0
 19 22  2  0  0  0  0
 19 29  1  0  0  0  0
 22 24  1  0  0  0  0
 23 29  1  0  0  0  0
 24 28  2  0  0  0  0
 27 28  1  0  0  0  0
M  END
>  <Original_Directory>
3fqv_A_rec_3sru_q26_lig_tt_docked_4_pocket10

>  <Original_Filename>
3fqv_A_rec_3sru_q26_lig_tt_docked_4_pocket10_gen_sample_9.sdf

>  <Molecule_ID>
sample_9

>  <logS>
-4.3736501

$$$$