
  MOE2022           3D

 14 15  0  0  0  0  0  0  0  0999 V2000
   -0.9740   -2.6170   35.8400 C   0  0  0  0  0  0  0  0  0  0  0  0
   -0.9570   -4.0360   36.1860 C   0  0  0  0  0  0  0  0  0  0  0  0
   -1.2730   -2.2600   34.4790 C   0  0  0  0  0  0  0  0  0  0  0  0
   -0.7630   -4.5520   33.6500 C   0  0  0  0  0  0  0  0  0  0  0  0
   -1.3830   -6.1650   35.3040 O   0  0  0  0  0  0  0  0  0  0  0  0
   -1.6030   -3.3120   33.6110 C   0  0  0  0  0  0  0  0  0  0  0  0
   -2.5480    1.1950   33.4160 C   0  0  0  0  0  0  0  0  0  0  0  0
   -2.7680   -3.2710   32.8720 C   0  0  0  0  0  0  0  0  0  0  0  0
   -0.5630   -5.0190   35.0910 C   0  0  0  0  0  0  0  0  0  0  0  0
    0.7860   -5.2720   35.3080 O   0  0  0  0  0  0  0  0  0  0  0  0
   -1.2700   -0.9390   34.0050 C   0  0  0  0  0  0  0  0  0  0  0  0
   -3.6190   -1.0250   33.4990 C   0  0  0  0  0  0  0  0  0  0  0  0
   -3.7520   -2.3190   33.0830 C   0  0  0  0  0  0  0  0  0  0  0  0
   -2.4410   -0.2970   33.6020 C   0  0  0  0  0  0  0  0  0  0  0  0
  1  2  1  0  0  0  0
  1  3  1  0  0  0  0
  2  9  1  0  0  0  0
  3  6  2  0  0  0  0
  3 11  1  0  0  0  0
  4  6  1  0  0  0  0
  4  9  1  0  0  0  0
  5  9  1  0  0  0  0
  6  8  1  0  0  0  0
  7 14  1  0  0  0  0
  8 13  2  0  0  0  0
  9 10  1  0  0  0  0
 11 14  1  0  0  0  0
 12 13  1  0  0  0  0
 12 14  2  0  0  0  0
M  END
>  <Original_Directory>
4a7g_F_rec_2wz6_zo0_lig_tt_min_0_pocket10

>  <Original_Filename>
4a7g_F_rec_2wz6_zo0_lig_tt_min_0_pocket10_gen_sample_14.sdf

>  <Molecule_ID>
sample_14

>  <logS>
-1.56712

$$$$