/tmp/tmpxswavcwg
  MOE2022           3D

 35 39  0  0  1  0  0  0  0  0999 V2000
  -22.6660   -1.5760   -6.0250 C   0  0  0  0  0  0  0  0  0  0  0  0
  -23.3420   -1.9890   -7.3040 C   0  0  0  0  0  0  0  0  0  0  0  0
  -25.3380    2.4860  -12.4440 C   0  0  0  0  0  0  0  0  0  0  0  0
  -24.6700   -0.5380   -9.9560 C   0  0  0  0  0  0  0  0  0  0  0  0
  -26.2470    1.1320   -9.2530 C   0  0  0  0  0  0  0  0  0  0  0  0
  -25.8090    2.3540  -14.9370 C   0  0  0  0  0  0  0  0  0  0  0  0
  -24.1850   -0.8530  -16.8400 Cl  0  0  0  0  0  0  0  0  0  0  0  0
  -26.7170    0.0410  -15.1780 C   0  0  3  0  0  0  0  0  0  0  0  0
  -28.0920    0.0710  -15.4380 C   0  0  0  0  0  0  0  0  0  0  0  0
  -30.1250   -0.5670  -14.4040 O   0  0  0  0  0  0  0  0  0  0  0  0
  -23.4130    0.9480  -15.0830 C   0  0  0  0  0  0  0  0  0  0  0  0
  -23.6540    1.7340  -13.9920 N   0  0  0  0  0  0  0  0  0  0  0  0
  -23.0020   -4.6960   -9.6100 F   0  0  0  0  0  0  0  0  0  0  0  0
  -24.7500   -1.7850   -7.4840 C   0  0  0  0  0  0  0  0  0  0  0  0
  -26.2250   -0.9180  -14.2660 C   0  0  0  0  0  0  0  0  0  0  0  0
  -28.1810   -0.3340  -13.0630 C   0  0  3  0  0  0  0  0  0  0  0  0
  -25.8140    1.0790  -15.7680 C   0  0  2  0  0  0  0  0  0  0  0  0
  -26.6460    1.9490   -8.4230 O   0  0  0  0  0  0  0  0  0  0  0  0
  -24.2970    0.1740  -11.4640 S   0  0  0  0  0  0  0  0  0  0  0  0
  -24.4300    0.5380  -15.8920 C   0  0  3  0  0  0  0  0  0  0  0  0
  -25.5230    1.4190  -11.5180 C   0  0  3  0  0  0  0  0  0  0  0  0
  -26.6610   -3.3380   -6.8920 C   0  0  0  0  0  0  0  0  0  0  0  0
  -22.7260   -2.8620   -8.1990 C   0  0  0  0  0  0  0  0  0  0  0  0
  -24.8820    2.2040  -13.7500 C   0  0  3  0  0  0  0  0  0  0  0  0
  -25.4120    0.0400   -8.9140 C   0  0  0  0  0  0  0  0  0  0  0  0
  -28.5700    0.4340  -11.9610 C   0  0  0  0  0  0  0  0  0  0  0  0
  -27.0060   -1.1170  -13.1190 C   0  0  0  0  0  0  0  0  0  0  0  0
  -23.5530   -3.8520   -8.7440 C   0  0  0  0  0  0  0  0  0  0  0  0
  -24.8860   -3.9280   -8.4920 N   0  0  0  0  0  0  0  0  0  0  0  0
  -26.2580    1.4360  -17.0750 O   0  0  0  0  0  0  0  0  0  0  0  0
  -28.8980   -0.2460  -14.3080 C   0  0  0  0  0  0  0  0  0  0  0  0
  -26.5970    1.2540  -10.6460 C   0  0  3  0  0  0  0  0  0  0  0  0
  -27.9280    1.1510  -11.0420 C   0  0  0  0  0  0  0  0  0  0  0  0
  -25.3460   -0.4980   -7.6270 C   0  0  0  0  0  0  0  0  0  0  0  0
  -25.4380   -3.0020   -7.7010 C   0  0  0  0  0  0  0  0  0  0  0  0
  1  2  1  0  0  0  0
  2 14  2  0  0  0  0
  2 23  1  0  0  0  0
  3 21  1  0  0  0  0
  3 24  1  0  0  0  0
  4 19  1  0  0  0  0
  4 25  1  0  0  0  0
  5 18  2  0  0  0  0
  5 25  1  0  0  0  0
  5 32  1  0  0  0  0
  6 17  1  0  0  0  0
  6 24  1  0  0  0  0
  7 20  1  0  0  0  0
  8  9  1  0  0  0  0
  8 15  1  0  0  0  0
  8 17  1  0  0  0  0
  9 31  1  0  0  0  0
 10 31  2  0  0  0  0
 11 12  2  0  0  0  0
 11 20  1  0  0  0  0
 12 24  1  0  0  0  0
 13 28  1  0  0  0  0
 14 34  1  0  0  0  0
 14 35  1  0  0  0  0
 15 27  1  0  0  0  0
 16 26  1  0  0  0  0
 16 27  1  0  0  0  0
 16 31  1  0  0  0  0
 17 20  1  0  0  0  0
 17 30  1  0  0  0  0
 19 21  1  0  0  0  0
 21 32  1  0  0  0  0
 22 35  1  0  0  0  0
 23 28  2  0  0  0  0
 25 34  2  0  0  0  0
 26 33  2  0  0  0  0
 28 29  1  0  0  0  0
 29 35  2  0  0  0  0
 32 33  1  0  0  0  0
M  END
>  <Original_Directory>
3tyv_B_rec_4jy0_1o9_lig_tt_docked_1_pocket10

>  <Original_Filename>
3tyv_B_rec_4jy0_1o9_lig_tt_docked_1_pocket10_gen_sample_11.sdf

>  <Molecule_ID>
sample_11

>  <logS>
-5.7333698

$$$$