/tmp/tmpbg6ep23_
  MOE2022           3D

 26 29  0  0  1  0  0  0  0  0999 V2000
   -3.9810   -0.1650   15.4570 O   0  0  0  0  0  0  0  0  0  0  0  0
   -3.1680    4.4580   14.8140 C   0  0  3  0  0  0  0  0  0  0  0  0
   -1.0160    5.4650   13.3510 C   0  0  0  0  0  0  0  0  0  0  0  0
   -4.6260   -0.9140   20.5120 C   0  0  0  0  0  0  0  0  0  0  0  0
   -1.5680    7.7530   13.1940 O   0  0  0  0  0  0  0  0  0  0  0  0
   -3.3120    4.7290   13.4620 C   0  0  3  0  0  0  0  0  0  0  0  0
   -2.8210    5.5190   15.6370 C   0  0  0  0  0  0  0  0  0  0  0  0
   -5.8580    1.1800   19.2830 C   0  0  3  0  0  0  0  0  0  0  0  0
   -2.2920    5.5160   12.9570 C   0  0  3  0  0  0  0  0  0  0  0  0
   -5.5620    0.8560   17.9380 O   0  0  0  0  0  0  0  0  0  0  0  0
   -5.0920    3.0990   14.9900 C   0  0  3  0  0  0  0  0  0  0  0  0
   -4.4630    4.2070   12.7220 C   0  0  0  0  0  0  0  0  0  0  0  0
   -3.0220    2.0160   15.5090 C   0  0  0  0  0  0  0  0  0  0  0  0
   -5.4340    3.4340   13.5710 C   0  0  0  0  0  0  0  0  0  0  0  0
   -3.6290    3.2060   15.1710 C   0  0  3  0  0  0  0  0  0  0  0  0
   -3.8590   -0.8220   21.7680 N   0  0  0  0  0  0  0  0  0  0  0  0
   -1.7740    6.4870   13.7370 C   0  0  1  0  0  0  0  0  0  0  0  0
   -5.9980    3.2000   17.9860 C   0  0  0  0  0  0  0  0  0  0  0  0
   -4.0950    1.0720   15.5890 C   0  0  0  0  0  0  0  0  0  0  0  0
   -5.9060    1.9700   17.1120 C   0  0  0  0  0  0  0  0  0  0  0  0
   -5.3940    1.8040   15.6960 C   0  0  3  0  0  0  0  0  0  0  0  0
   -2.4370   -0.7230   21.6190 N   0  0  0  0  0  0  0  0  0  0  0  0
   -6.0700   -0.3580   17.4090 C   0  0  0  0  0  0  0  0  0  0  0  0
   -5.8280    2.6880   19.4050 C   0  0  0  0  0  0  0  0  0  0  0  0
   -2.1390    6.5910   15.0920 C   0  0  0  0  0  0  0  0  0  0  0  0
   -5.0900    0.4250   20.2230 N   0  0  0  0  0  0  0  0  0  0  0  0
  1 19  2  0  0  0  0
  2  6  1  0  0  0  0
  2  7  1  0  0  0  0
  2 15  1  0  0  0  0
  3  9  1  0  0  0  0
  3 17  1  0  0  0  0
  4 16  1  0  0  0  0
  4 26  1  0  0  0  0
  5 17  1  0  0  0  0
  6  9  1  0  0  0  0
  6 12  1  0  0  0  0
  7 25  2  0  0  0  0
  8 10  1  0  0  0  0
  8 24  1  0  0  0  0
  8 26  1  0  0  0  0
  9 17  1  0  0  0  0
 10 23  1  0  0  0  0
 11 14  1  0  0  0  0
 11 15  1  0  0  0  0
 11 21  1  0  0  0  0
 12 14  1  0  0  0  0
 13 15  1  0  0  0  0
 13 19  1  0  0  0  0
 16 22  1  0  0  0  0
 17 25  1  0  0  0  0
 18 20  1  0  0  0  0
 18 24  1  0  0  0  0
 19 21  1  0  0  0  0
 20 21  1  0  0  0  0
M  END
>  <Original_Directory>
5n0d_A_rec_4rfc_3o1_lig_tt_docked_16_pocket10

>  <Original_Filename>
5n0d_A_rec_4rfc_3o1_lig_tt_docked_16_pocket10_gen_sample_1.sdf

>  <Molecule_ID>
sample_1

>  <logS>
-1.8388

$$$$