/tmp/tmp5sryqx2e
  MOE2022           3D

 24 28  0  0  1  0  0  0  0  0999 V2000
   -7.1450  -17.1360   -7.0750 C   0  0  0  0  0  0  0  0  0  0  0  0
   -8.5530  -16.8950   -7.3030 C   0  0  0  0  0  0  0  0  0  0  0  0
   -6.2990  -17.3060   -8.0610 C   0  0  0  0  0  0  0  0  0  0  0  0
  -11.2530  -17.9360  -13.3480 C   0  0  0  0  0  0  0  0  0  0  0  0
   -8.2070  -17.2760   -9.7470 C   0  0  0  0  0  0  0  0  0  0  0  0
   -6.1040  -15.3410  -12.4770 C   0  0  0  0  0  0  0  0  0  0  0  0
  -10.4180  -17.1480  -10.4040 C   0  0  3  0  0  0  0  0  0  0  0  0
   -9.1060  -17.3920  -10.8960 C   0  0  0  0  0  0  0  0  0  0  0  0
   -5.7540  -16.7580  -10.4370 C   0  0  2  0  0  0  0  0  0  0  0  0
  -10.4450  -17.2980   -9.0030 C   0  0  0  0  0  0  0  0  0  0  0  0
   -8.9620  -17.7040  -12.3630 C   0  0  0  0  0  0  0  0  0  0  0  0
  -10.0550  -16.9890  -13.1980 C   0  0  3  0  0  0  0  0  0  0  0  0
   -6.5620  -19.0480   -9.6530 C   0  0  0  0  0  0  0  0  0  0  0  0
   -9.3380  -16.3990   -6.3550 N   0  0  0  0  0  0  0  0  0  0  0  0
   -4.8690  -17.3730  -12.7220 C   0  0  0  0  0  0  0  0  0  0  0  0
   -5.0430  -17.6870  -11.3750 C   0  0  0  0  0  0  0  0  0  0  0  0
  -11.4410  -16.5430  -11.3380 C   0  0  3  0  0  0  0  0  0  0  0  0
  -12.1210  -17.7010  -12.1060 C   0  0  0  0  0  0  0  0  0  0  0  0
   -9.0800  -17.1960   -8.5980 C   0  0  3  0  0  0  0  0  0  0  0  0
   -4.6400  -16.0970   -9.6500 C   0  0  0  0  0  0  0  0  0  0  0  0
   -6.7260  -17.5330   -9.4950 C   0  0  1  0  0  0  0  0  0  0  0  0
   -6.4770  -15.6670  -11.1880 C   0  0  0  0  0  0  0  0  0  0  0  0
  -10.6570  -15.8110  -12.4360 C   0  0  0  0  0  0  0  0  0  0  0  0
   -5.3370  -16.1980  -13.2770 C   0  0  0  0  0  0  0  0  0  0  0  0
  1  2  1  0  0  0  0
  1  3  2  0  0  0  0
  2 14  2  0  0  0  0
  2 19  1  0  0  0  0
  3 21  1  0  0  0  0
  4 12  1  0  0  0  0
  4 18  1  0  0  0  0
  5  8  2  0  0  0  0
  5 19  1  0  0  0  0
  5 21  1  0  0  0  0
  6 22  1  0  0  0  0
  6 24  2  0  0  0  0
  7  8  1  0  0  0  0
  7 10  1  0  0  0  0
  7 17  1  0  0  0  0
  8 11  1  0  0  0  0
  9 16  1  0  0  0  0
  9 20  1  0  0  0  0
  9 21  1  0  0  0  0
  9 22  1  0  0  0  0
 10 19  1  0  0  0  0
 11 12  1  0  0  0  0
 12 23  1  0  0  0  0
 13 21  1  0  0  0  0
 15 16  2  0  0  0  0
 15 24  1  0  0  0  0
 17 18  1  0  0  0  0
 17 23  1  0  0  0  0
M  END
>  <Original_Directory>
5k7g_A_rec_4yo6_4gd_lig_tt_docked_7_pocket10

>  <Original_Filename>
5k7g_A_rec_4yo6_4gd_lig_tt_docked_7_pocket10_gen_sample_7.sdf

>  <Molecule_ID>
sample_7

>  <logS>
-6.82375

$$$$