/tmp/tmp5i406f4j
  MOE2022           3D

 30 33  0  0  1  0  0  0  0  0999 V2000
  -16.0740    7.5210    0.5060 C   0  0  3  0  0  0  0  0  0  0  0  0
  -17.1300    9.4080    1.1040 C   0  0  1  0  0  0  0  0  0  0  0  0
  -14.8300    5.1220   -6.3580 C   0  0  0  0  0  0  0  0  0  0  0  0
  -14.1430    3.3220   -4.8200 C   0  0  0  0  0  0  0  0  0  0  0  0
  -17.1420    9.0960   -3.6030 O   0  0  0  0  0  0  0  0  0  0  0  0
  -10.3340   -0.4990   -3.9910 C   0  0  0  0  0  0  0  0  0  0  0  0
  -17.4410    7.0200    0.9880 C   0  0  0  0  0  0  0  0  0  0  0  0
  -15.4580    8.4410    2.7110 O   0  0  0  0  0  0  0  0  0  0  0  0
  -17.0020    9.6110   -0.4090 C   0  0  0  0  0  0  0  0  0  0  0  0
  -11.0570    2.2280   -6.7370 C   0  0  0  0  0  0  0  0  0  0  0  0
  -10.1430    1.3950   -6.1400 C   0  0  3  0  0  0  0  0  0  0  0  0
   -9.4370   -0.5530   -7.3680 O   0  0  0  0  0  0  0  0  0  0  0  0
   -9.1820    0.5030   -3.9570 C   0  0  0  0  0  0  0  0  0  0  0  0
  -10.0820   -0.0610   -6.4650 C   0  0  0  0  0  0  0  0  0  0  0  0
  -10.7170   -0.9390   -5.3940 C   0  0  0  0  0  0  0  0  0  0  0  0
  -12.4940    2.1790   -6.4060 C   0  0  0  0  0  0  0  0  0  0  0  0
  -18.1590    8.3040    1.3950 C   0  0  0  0  0  0  0  0  0  0  0  0
  -16.3080    8.3020   -0.7710 C   0  0  3  0  0  0  0  0  0  0  0  0
  -15.7090    7.9430   -1.9930 O   0  0  0  0  0  0  0  0  0  0  0  0
  -14.1210    5.6730   -3.9590 C   0  0  0  0  0  0  0  0  0  0  0  0
  -13.3570    3.1900   -6.1170 C   0  0  3  0  0  0  0  0  0  0  0  0
  -15.5880    7.5210   -4.5170 O   0  0  0  0  0  0  0  0  0  0  0  0
  -15.7680    8.7470    1.3670 C   0  0  3  0  0  0  0  0  0  0  0  0
   -9.5000    1.7340   -4.8090 C   0  0  0  0  0  0  0  0  0  0  0  0
  -17.4570    6.7130   -3.1760 O   0  0  0  0  0  0  0  0  0  0  0  0
  -14.8640    4.6850   -4.8910 C   0  0  3  0  0  0  0  0  0  0  0  0
  -17.3300   10.6080    1.8280 O   0  0  0  0  0  0  0  0  0  0  0  0
  -16.5260    7.8290   -3.2950 S   0  0  0  0  0  0  0  0  0  0  0  0
  -13.7340    4.3100   -7.0660 C   0  0  0  0  0  0  0  0  0  0  0  0
  -14.2080    7.1530   -4.3570 C   0  0  0  0  0  0  0  0  0  0  0  0
  1  7  1  0  0  0  0
  1 18  1  0  0  0  0
  1 23  1  0  0  0  0
  2  9  1  0  0  0  0
  2 17  1  0  0  0  0
  2 23  1  0  0  0  0
  2 27  1  0  0  0  0
  3 26  1  0  0  0  0
  3 29  1  0  0  0  0
  4 21  1  0  0  0  0
  4 26  1  0  0  0  0
  5 28  1  0  0  0  0
  6 13  1  0  0  0  0
  6 15  1  0  0  0  0
  7 17  1  0  0  0  0
  8 23  1  0  0  0  0
  9 18  1  0  0  0  0
 10 11  1  0  0  0  0
 10 16  1  0  0  0  0
 11 14  1  0  0  0  0
 11 24  1  0  0  0  0
 12 14  2  0  0  0  0
 13 24  1  0  0  0  0
 14 15  1  0  0  0  0
 16 21  1  0  0  0  0
 18 19  1  0  0  0  0
 19 28  1  0  0  0  0
 20 26  1  0  0  0  0
 20 30  1  0  0  0  0
 21 29  1  0  0  0  0
 22 28  1  0  0  0  0
 22 30  1  0  0  0  0
 25 28  1  0  0  0  0
M  END
>  <Original_Directory>
3a2i_A_rec_3b0t_mcz_lig_tt_docked_1_pocket10

>  <Original_Filename>
3a2i_A_rec_3b0t_mcz_lig_tt_docked_1_pocket10_gen_sample_4.sdf

>  <Molecule_ID>
sample_4

>  <logS>
-4.9017901

$$$$