/tmp/tmpw9zu3o91
  MOE2022           3D

 30 33  0  0  1  0  0  0  0  0999 V2000
   -8.9120    8.7540    1.3040 C   0  0  0  0  0  0  0  0  0  0  0  0
  -11.1550    1.8690   -6.0910 C   0  0  0  0  0  0  0  0  0  0  0  0
  -15.3280    5.6330   -3.2830 C   0  0  0  0  0  0  0  0  0  0  0  0
  -15.6160    7.7100    1.2420 C   0  0  0  0  0  0  0  0  0  0  0  0
   -8.7330    9.6500    0.0600 C   0  0  0  0  0  0  0  0  0  0  0  0
  -15.5610    6.6890    0.2690 C   0  0  0  0  0  0  0  0  0  0  0  0
  -12.5750    8.3090    1.7130 C   0  0  0  0  0  0  0  0  0  0  0  0
  -13.6770    8.4470    2.7830 C   0  0  0  0  0  0  0  0  0  0  0  0
  -13.5610    0.7350   -5.8920 C   0  0  0  0  0  0  0  0  0  0  0  0
  -16.3470    8.8950    0.9640 C   0  0  0  0  0  0  0  0  0  0  0  0
   -9.3260    0.6430   -4.8380 C   0  0  0  0  0  0  0  0  0  0  0  0
   -9.7670   -0.6110   -5.6700 C   0  0  0  0  0  0  0  0  0  0  0  0
  -13.3630    5.9330   -4.7780 C   0  0  0  0  0  0  0  0  0  0  0  0
  -11.2210    8.2920    2.4040 C   0  0  0  0  0  0  0  0  0  0  0  0
  -14.9060    3.9340   -5.0120 C   0  0  0  0  0  0  0  0  0  0  0  0
  -16.7860    9.1540   -0.3460 C   0  0  0  0  0  0  0  0  0  0  0  0
  -14.2950    6.4930   -3.8650 C   0  0  0  0  0  0  0  0  0  0  0  0
  -14.8590    7.5180    2.5460 C   0  0  0  0  0  0  0  0  0  0  0  0
  -11.6080    3.2290   -6.1910 C   0  0  0  0  0  0  0  0  0  0  0  0
   -9.6160    1.5320   -6.1650 C   0  0  0  0  0  0  0  0  0  0  0  0
  -15.7450    4.4460   -3.9880 C   0  0  0  0  0  0  0  0  0  0  0  0
  -12.0340    0.6600   -5.8510 C   0  0  3  0  0  0  0  0  0  0  0  0
  -16.6310    8.1760   -1.3500 C   0  0  0  0  0  0  0  0  0  0  0  0
  -11.3710   -0.7280   -5.7240 C   0  0  0  0  0  0  0  0  0  0  0  0
   -9.3720    0.2170   -6.9500 C   0  0  0  0  0  0  0  0  0  0  0  0
  -16.0380    6.9270   -1.0440 C   0  0  0  0  0  0  0  0  0  0  0  0
  -13.6630    4.6260   -5.3510 C   0  0  0  0  0  0  0  0  0  0  0  0
  -10.1270    9.2640    2.0600 C   0  0  0  0  0  0  0  0  0  0  0  0
  -15.8850    5.8900   -2.0140 N   0  0  0  0  0  0  0  0  0  0  0  0
  -12.6990    3.9810   -6.2590 C   0  0  0  0  0  0  0  0  0  0  0  0
  1  5  1  0  0  0  0
  1 28  1  0  0  0  0
  2 19  2  0  0  0  0
  2 20  1  0  0  0  0
  2 22  1  0  0  0  0
  3 17  1  0  0  0  0
  3 21  2  0  0  0  0
  3 29  1  0  0  0  0
  4  6  2  0  0  0  0
  4 10  1  0  0  0  0
  4 18  1  0  0  0  0
  6 26  1  0  0  0  0
  7  8  1  0  0  0  0
  7 14  1  0  0  0  0
  8 18  1  0  0  0  0
  9 22  1  0  0  0  0
 10 16  2  0  0  0  0
 11 12  1  0  0  0  0
 11 20  1  0  0  0  0
 12 24  1  0  0  0  0
 12 25  1  0  0  0  0
 13 17  2  0  0  0  0
 13 27  1  0  0  0  0
 14 28  1  0  0  0  0
 15 21  1  0  0  0  0
 15 27  2  0  0  0  0
 16 23  1  0  0  0  0
 19 30  1  0  0  0  0
 20 25  1  0  0  0  0
 22 24  1  0  0  0  0
 23 26  2  0  0  0  0
 26 29  1  0  0  0  0
 27 30  1  0  0  0  0
M  END
>  <Original_Directory>
3a2i_A_rec_3b0t_mcz_lig_tt_docked_1_pocket10

>  <Original_Filename>
3a2i_A_rec_3b0t_mcz_lig_tt_docked_1_pocket10_gen_sample_13.sdf

>  <Molecule_ID>
sample_13

>  <logS>
-10.76142

$$$$