/tmp/tmpcr76wb49
  MOE2022           3D

 11 12  0  0  1  0  0  0  0  0999 V2000
   -3.2950    0.1990    9.0850 C   0  0  0  0  0  0  0  0  0  0  0  0
   -0.7420    0.2780   10.9880 C   0  0  0  0  0  0  0  0  0  0  0  0
   -4.6700    1.5220   11.8180 N   0  0  0  0  0  0  0  0  0  0  0  0
   -1.9740   -0.6250   11.1060 C   0  0  0  0  0  0  0  0  0  0  0  0
   -3.4250    1.3420   11.2750 N   0  0  0  0  0  0  0  0  0  0  0  0
   -4.5040   -0.5640   11.0860 N   0  0  0  0  0  0  0  0  0  0  0  0
   -0.9320    1.7270   11.3310 C   0  0  0  0  0  0  0  0  0  0  0  0
   -6.5180    0.1790   11.9400 O   0  0  0  0  0  0  0  0  0  0  0  0
   -2.3400    2.2890   11.3930 C   0  0  0  0  0  0  0  0  0  0  0  0
   -5.3260    0.3380   11.7000 C   0  0  0  0  0  0  0  0  0  0  0  0
   -3.2750    0.0530   10.6070 C   0  0  1  0  0  0  0  0  0  0  0  0
  1 11  1  0  0  0  0
  2  4  1  0  0  0  0
  2  7  1  0  0  0  0
  3  5  1  0  0  0  0
  3 10  1  0  0  0  0
  4 11  1  0  0  0  0
  5  9  1  0  0  0  0
  5 11  1  0  0  0  0
  6 10  1  0  0  0  0
  6 11  1  0  0  0  0
  7  9  2  0  0  0  0
  8 10  2  0  0  0  0
M  END
>  <Original_Directory>
3pm4_A_rec_4y4a_47g_lig_tt_min_0_pocket10

>  <Original_Filename>
3pm4_A_rec_4y4a_47g_lig_tt_min_0_pocket10_gen_sample_19.sdf

>  <Molecule_ID>
sample_19

>  <logS>
-0.41431001

$$$$