/tmp/tmp1q0b1mwm
  MOE2022           3D

 11 11  0  0  0  0  0  0  0  0999 V2000
   -2.6110    1.5280   11.5800 N   0  0  0  0  0  0  0  0  0  0  0  0
   -3.8830    1.4160   11.9290 C   0  0  0  0  0  0  0  0  0  0  0  0
   -4.8830    0.5460   11.5660 C   0  0  0  0  0  0  0  0  0  0  0  0
   -4.8180   -0.3540   10.5110 C   0  0  0  0  0  0  0  0  0  0  0  0
   -2.4140   -0.1460    9.8430 C   0  0  0  0  0  0  0  0  0  0  0  0
   -3.5380   -2.1980    9.8150 O   0  0  0  0  0  0  0  0  0  0  0  0
   -6.0670   -0.5930    9.6860 C   0  0  0  0  0  0  0  0  0  0  0  0
   -6.9910    0.2310    9.7360 O   0  0  0  0  0  0  0  0  0  0  0  0
   -6.1700   -1.6710    9.0460 O   0  0  0  0  0  0  0  0  0  0  0  0
   -1.9960    0.9190   10.5580 C   0  0  0  0  0  0  0  0  0  0  0  0
   -3.5840   -0.8880   10.0400 C   0  0  0  0  0  0  0  0  0  0  0  0
  1  2  1  0  0  0  0
  1 10  2  0  0  0  0
  2  3  1  0  0  0  0
  3  4  2  0  0  0  0
  4  7  1  0  0  0  0
  4 11  1  0  0  0  0
  5 10  1  0  0  0  0
  5 11  2  0  0  0  0
  6 11  1  0  0  0  0
  7  8  1  0  0  0  0
  7  9  2  0  0  0  0
M  END
>  <Original_Directory>
3pm4_A_rec_4y4a_47g_lig_tt_min_0_pocket10

>  <Original_Filename>
3pm4_A_rec_4y4a_47g_lig_tt_min_0_pocket10_gen_sample_13.sdf

>  <Molecule_ID>
sample_13

>  <logS>
-0.55785

$$$$