/tmp/tmp65eecl16
  MOE2022           3D

 28 32  0  0  1  0  0  0  0  0999 V2000
   -2.6640    5.9270   12.7070 C   0  0  0  0  0  0  0  0  0  0  0  0
   -6.3520    2.4740   18.8920 C   0  0  0  0  0  0  0  0  0  0  0  0
   -7.1950    3.6160   18.3390 C   0  0  0  0  0  0  0  0  0  0  0  0
   -3.8220    4.9930   13.0620 C   0  0  0  0  0  0  0  0  0  0  0  0
   -5.7940    1.5910   16.5760 C   0  0  2  0  0  0  0  0  0  0  0  0
   -3.5700    2.4760   15.7820 C   0  0  0  0  0  0  0  0  0  0  0  0
   -6.1540   -2.4250   21.1900 C   0  0  0  0  0  0  0  0  0  0  0  0
   -5.6210    3.3970   14.9600 C   0  0  0  0  0  0  0  0  0  0  0  0
   -3.5300    4.6980   14.5280 C   0  0  0  0  0  0  0  0  0  0  0  0
   -6.1990    3.6050   13.8900 O   0  0  0  0  0  0  0  0  0  0  0  0
   -6.0720   -1.2200   20.5720 N   0  0  0  0  0  0  0  0  0  0  0  0
   -7.7280    0.8700   17.7850 O   0  0  0  0  0  0  0  0  0  0  0  0
   -7.0350   -3.3900   19.0870 C   0  0  0  0  0  0  0  0  0  0  0  0
   -6.2090    0.5570   15.6860 O   0  0  0  0  0  0  0  0  0  0  0  0
   -5.9770   -2.5840   22.3920 O   0  0  0  0  0  0  0  0  0  0  0  0
   -6.3710    1.2630   17.9570 C   0  0  2  0  0  0  0  0  0  0  0  0
   -6.2810    2.9550   16.1290 C   0  0  3  0  0  0  0  0  0  0  0  0
   -1.8280    5.9910   13.9740 C   0  0  0  0  0  0  0  0  0  0  0  0
   -4.3020    1.5400   16.5440 C   0  0  0  0  0  0  0  0  0  0  0  0
   -6.1270   -3.6500   20.3020 C   0  0  0  0  0  0  0  0  0  0  0  0
   -6.4500   -0.9720   19.1780 C   0  0  3  0  0  0  0  0  0  0  0  0
   -6.3700   -2.2370   18.3130 C   0  0  0  0  0  0  0  0  0  0  0  0
   -2.0190    4.5820   14.5370 C   0  0  0  0  0  0  0  0  0  0  0  0
   -3.7750    5.9490   15.3640 C   0  0  0  0  0  0  0  0  0  0  0  0
   -2.5840    6.8260   15.0050 C   0  0  0  0  0  0  0  0  0  0  0  0
   -4.2080    3.4950   15.0850 C   0  0  0  0  0  0  0  0  0  0  0  0
   -5.5690    0.1380   18.6080 C   0  0  0  0  0  0  0  0  0  0  0  0
   -7.0990    3.7400   16.8460 C   0  0  0  0  0  0  0  0  0  0  0  0
  1  4  1  0  0  0  0
  1 18  1  0  0  0  0
  2  3  1  0  0  0  0
  2 16  1  0  0  0  0
  3 28  1  0  0  0  0
  4  9  1  0  0  0  0
  5 14  1  0  0  0  0
  5 16  1  0  0  0  0
  5 17  1  0  0  0  0
  5 19  1  0  0  0  0
  6 19  1  0  0  0  0
  6 26  2  0  0  0  0
  7 11  1  0  0  0  0
  7 15  2  0  0  0  0
  7 20  1  0  0  0  0
  8 10  2  0  0  0  0
  8 17  1  0  0  0  0
  8 26  1  0  0  0  0
  9 23  1  0  0  0  0
  9 24  1  0  0  0  0
  9 26  1  0  0  0  0
 11 21  1  0  0  0  0
 12 16  1  0  0  0  0
 13 20  1  0  0  0  0
 13 22  1  0  0  0  0
 16 27  1  0  0  0  0
 17 28  1  0  0  0  0
 18 23  1  0  0  0  0
 18 25  1  0  0  0  0
 21 22  1  0  0  0  0
 21 27  1  0  0  0  0
 24 25  1  0  0  0  0
M  END
>  <Original_Directory>
4kuv_A_rec_3dd8_2c7_lig_tt_docked_4_pocket10

>  <Original_Filename>
4kuv_A_rec_3dd8_2c7_lig_tt_docked_4_pocket10_gen_sample_8.sdf

>  <Molecule_ID>
sample_8

>  <logS>
-4.2768502

$$$$