/tmp/tmpghn7hws9
  MOE2022           3D

 24 27  0  0  0  0  0  0  0  0999 V2000
  -26.4850  -23.1080    4.0890 C   0  0  0  0  0  0  0  0  0  0  0  0
  -26.9100  -18.8180    8.3210 C   0  0  0  0  0  0  0  0  0  0  0  0
  -26.6420  -22.2020    1.7230 C   0  0  0  0  0  0  0  0  0  0  0  0
  -28.3330  -21.4580    9.0790 C   0  0  0  0  0  0  0  0  0  0  0  0
  -26.6220  -21.3660    5.7540 C   0  0  0  0  0  0  0  0  0  0  0  0
  -28.3640  -24.8690    0.0760 C   0  0  0  0  0  0  0  0  0  0  0  0
  -28.0970  -21.6110    7.7130 C   0  0  0  0  0  0  0  0  0  0  0  0
  -25.5720  -20.9580    3.6220 C   0  0  0  0  0  0  0  0  0  0  0  0
  -27.2920  -24.0520    0.1850 C   0  0  0  0  0  0  0  0  0  0  0  0
  -27.6930  -17.0480    6.3190 C   0  0  0  0  0  0  0  0  0  0  0  0
  -29.2590  -22.2380    9.6490 F   0  0  0  0  0  0  0  0  0  0  0  0
  -27.7090  -20.5390    9.9070 C   0  0  0  0  0  0  0  0  0  0  0  0
  -27.3170  -20.7850    6.9270 C   0  0  0  0  0  0  0  0  0  0  0  0
  -27.2580  -19.2850    9.5840 C   0  0  0  0  0  0  0  0  0  0  0  0
  -29.2050  -24.6250    1.1370 N   0  0  0  0  0  0  0  0  0  0  0  0
  -26.7910  -22.7090    5.3890 C   0  0  0  0  0  0  0  0  0  0  0  0
  -27.5010  -23.2960    1.3090 N   0  0  0  0  0  0  0  0  0  0  0  0
  -26.2100  -22.1040    3.1570 C   0  0  0  0  0  0  0  0  0  0  0  0
  -26.0970  -17.5310    8.2650 C   0  0  0  0  0  0  0  0  0  0  0  0
  -27.3290  -19.3960    7.1300 N   0  0  0  0  0  0  0  0  0  0  0  0
  -28.6560  -23.6690    1.8620 C   0  0  0  0  0  0  0  0  0  0  0  0
  -27.8790  -18.5400    6.0690 C   0  0  0  0  0  0  0  0  0  0  0  0
  -25.7570  -20.5900    4.9580 C   0  0  0  0  0  0  0  0  0  0  0  0
  -26.5540  -16.5710    7.1820 C   0  0  0  0  0  0  0  0  0  0  0  0
  1 16  2  0  0  0  0
  1 18  1  0  0  0  0
  2 14  2  0  0  0  0
  2 19  1  0  0  0  0
  2 20  1  0  0  0  0
  3 17  1  0  0  0  0
  3 18  1  0  0  0  0
  4  7  1  0  0  0  0
  4 11  1  0  0  0  0
  4 12  2  0  0  0  0
  5 13  1  0  0  0  0
  5 16  1  0  0  0  0
  5 23  2  0  0  0  0
  6  9  2  0  0  0  0
  6 15  1  0  0  0  0
  7 13  2  0  0  0  0
  8 18  2  0  0  0  0
  8 23  1  0  0  0  0
  9 17  1  0  0  0  0
 10 22  1  0  0  0  0
 10 24  1  0  0  0  0
 12 14  1  0  0  0  0
 13 20  1  0  0  0  0
 15 21  2  0  0  0  0
 17 21  1  0  0  0  0
 19 24  1  0  0  0  0
 20 22  1  0  0  0  0
M  END
>  <Original_Directory>
4a4w_A_rec_4xuh_sfi_lig_tt_min_0_pocket10

>  <Original_Filename>
4a4w_A_rec_4xuh_sfi_lig_tt_min_0_pocket10_gen_sample_13.sdf

>  <Molecule_ID>
sample_13

>  <logS>
-4.1434002

$$$$