/tmp/tmp7jd7v93p
  MOE2022           3D

 35 39  0  0  1  0  0  0  0  0999 V2000
    4.7910   -2.1850   33.8660 O   0  0  0  0  0  0  0  0  0  0  0  0
    5.7420   -0.7170   35.2580 N   0  0  0  0  0  0  0  0  0  0  0  0
    2.9880   -0.3380   33.0140 C   0  0  0  0  0  0  0  0  0  0  0  0
   12.9330    6.3120   32.4680 C   0  0  0  0  0  0  0  0  0  0  0  0
   11.0810    7.4700   31.1110 C   0  0  0  0  0  0  0  0  0  0  0  0
    9.1170    8.9020   35.5480 C   0  0  0  0  0  0  0  0  0  0  0  0
   11.5490    7.0150   32.5280 C   0  0  0  0  0  0  0  0  0  0  0  0
    3.3810    0.3390   32.0100 O   0  0  0  0  0  0  0  0  0  0  0  0
    7.0120    4.0570   35.5110 N   0  0  0  0  0  0  0  0  0  0  0  0
    8.1440    6.9460   36.9000 C   0  0  0  0  0  0  0  0  0  0  0  0
    3.7030   -0.1860   34.2070 N   0  0  0  0  0  0  0  0  0  0  0  0
    5.1430    3.3250   36.9420 C   0  0  0  0  0  0  0  0  0  0  0  0
   13.3590    7.1710   30.1540 C   0  0  0  0  0  0  0  0  0  0  0  0
   11.7970    8.3060   33.3360 C   0  0  3  0  0  0  0  0  0  0  0  0
   12.7470    9.3440   32.8150 C   0  0  0  0  0  0  0  0  0  0  0  0
    8.3000    6.1750   35.6000 C   0  0  2  0  0  0  0  0  0  0  0  0
   11.3020    8.4150   34.5790 C   0  0  0  0  0  0  0  0  0  0  0  0
    6.5510    3.2350   36.5390 C   0  0  3  0  0  0  0  0  0  0  0  0
   10.0100    7.9910   35.0150 C   0  0  3  0  0  0  0  0  0  0  0  0
    7.1630    6.5810   34.6530 C   0  0  0  0  0  0  0  0  0  0  0  0
    7.5000    2.3510   37.1280 C   0  0  0  0  0  0  0  0  0  0  0  0
    7.0780    1.0010   37.7110 C   0  0  0  0  0  0  0  0  0  0  0  0
    8.8400    2.7690   37.1590 C   0  0  0  0  0  0  0  0  0  0  0  0
    9.2140    3.9350   36.4600 C   0  0  0  0  0  0  0  0  0  0  0  0
    8.1930    4.6940   35.8460 C   0  0  3  0  0  0  0  0  0  0  0  0
   13.8380    7.2980   31.6480 C   0  0  3  0  0  0  0  0  0  0  0  0
    3.8030    2.1440   35.1070 C   0  0  0  0  0  0  0  0  0  0  0  0
   12.2840    8.1950   30.4540 C   0  0  3  0  0  0  0  0  0  0  0  0
    9.6250    6.5240   34.9210 C   0  0  0  0  0  0  0  0  0  0  0  0
    3.2170    0.7480   35.2440 C   0  0  0  0  0  0  0  0  0  0  0  0
    8.2150    8.4560   36.6900 C   0  0  0  0  0  0  0  0  0  0  0  0
    4.7590   -1.0720   34.4120 C   0  0  0  0  0  0  0  0  0  0  0  0
    4.0650    2.8950   36.3050 C   0  0  0  0  0  0  0  0  0  0  0  0
   13.2870    8.7660   31.4800 C   0  0  0  0  0  0  0  0  0  0  0  0
    2.0120   -1.1200   32.9450 O   0  0  0  0  0  0  0  0  0  0  0  0
  1 32  2  0  0  0  0
  2 32  1  0  0  0  0
  3  8  2  0  0  0  0
  3 11  1  0  0  0  0
  3 35  1  0  0  0  0
  4  7  1  0  0  0  0
  4 26  1  0  0  0  0
  5  7  1  0  0  0  0
  5 28  1  0  0  0  0
  6 19  1  0  0  0  0
  6 31  1  0  0  0  0
  7 14  1  0  0  0  0
  9 18  1  0  0  0  0
  9 25  1  0  0  0  0
 10 16  1  0  0  0  0
 10 31  1  0  0  0  0
 11 30  1  0  0  0  0
 11 32  1  0  0  0  0
 12 18  1  0  0  0  0
 12 33  2  0  0  0  0
 13 26  1  0  0  0  0
 13 28  1  0  0  0  0
 14 15  1  0  0  0  0
 14 17  1  0  0  0  0
 15 34  1  0  0  0  0
 16 20  1  0  0  0  0
 16 25  1  0  0  0  0
 16 29  1  0  0  0  0
 17 19  1  0  0  0  0
 18 21  1  0  0  0  0
 19 29  1  0  0  0  0
 21 22  1  0  0  0  0
 21 23  2  0  0  0  0
 23 24  1  0  0  0  0
 24 25  1  0  0  0  0
 26 34  1  0  0  0  0
 27 30  1  0  0  0  0
 27 33  1  0  0  0  0
 28 34  1  0  0  0  0
M  END
>  <Original_Directory>
3wt5_A_rec_3wt7_ya2_lig_tt_docked_1_pocket10

>  <Original_Filename>
3wt5_A_rec_3wt7_ya2_lig_tt_docked_1_pocket10_gen_sample_3.sdf

>  <Molecule_ID>
sample_3

>  <logS>
-7.5865598

$$$$