
  MOE2022           3D

 31 34  0  0  1  0  0  0  0  0999 V2000
  -12.6950    3.5380   -6.5630 C   0  0  0  0  0  0  0  0  0  0  0  0
  -14.5070    6.4190   -4.8070 C   0  0  0  0  0  0  0  0  0  0  0  0
  -13.0600    2.1740   -6.2530 C   0  0  0  0  0  0  0  0  0  0  0  0
  -15.8550    8.9890    2.2790 C   0  0  3  0  0  0  0  0  0  0  0  0
  -11.0240   -1.0320   -6.3600 C   0  0  0  0  0  0  0  0  0  0  0  0
  -16.0980    8.9670    4.8380 C   0  0  3  0  0  0  0  0  0  0  0  0
  -17.0000    4.2010   -5.1320 C   0  0  0  0  0  0  0  0  0  0  0  0
  -14.2090    1.7260   -5.5210 C   0  0  0  0  0  0  0  0  0  0  0  0
  -15.2380    2.5210   -4.9960 C   0  0  0  0  0  0  0  0  0  0  0  0
  -17.1140    8.4160    0.2700 C   0  0  3  0  0  0  0  0  0  0  0  0
  -16.4020    7.0440   -3.1240 C   0  0  3  0  0  0  0  0  0  0  0  0
  -15.6180    8.2250    3.5900 C   0  0  0  0  0  0  0  0  0  0  0  0
  -16.9390    6.7590   -5.4960 C   0  0  0  0  0  0  0  0  0  0  0  0
  -18.7940    7.7780    2.0380 C   0  0  0  0  0  0  0  0  0  0  0  0
  -14.4430    4.9860   -5.4060 C   0  0  0  0  0  0  0  0  0  0  0  0
  -15.5040    3.8950   -5.1820 C   0  0  0  0  0  0  0  0  0  0  0  0
  -17.2020    9.7330    2.2760 C   0  0  0  0  0  0  0  0  0  0  0  0
  -15.8000    7.2580   -4.5450 C   0  0  3  0  0  0  0  0  0  0  0  0
  -17.3780    5.8610   -3.1890 C   0  0  0  0  0  0  0  0  0  0  0  0
  -19.1230    9.7830    0.7750 O   0  0  0  0  0  0  0  0  0  0  0  0
  -17.5820    5.5650   -4.7070 C   0  0  3  0  0  0  0  0  0  0  0  0
  -13.2790    4.7490   -6.1590 C   0  0  0  0  0  0  0  0  0  0  0  0
  -11.1900    0.4620   -6.0340 C   0  0  0  0  0  0  0  0  0  0  0  0
  -15.8460    8.0530    1.0610 C   0  0  0  0  0  0  0  0  0  0  0  0
  -17.1530    8.5750   -1.1000 C   0  0  0  0  0  0  0  0  0  0  0  0
  -16.3620    8.0190   -2.1580 C   0  0  0  0  0  0  0  0  0  0  0  0
  -18.0970    8.9450    1.3110 C   0  0  1  0  0  0  0  0  0  0  0  0
  -12.2230    1.1120   -6.9890 C   0  0  0  0  0  0  0  0  0  0  0  0
  -15.4770   10.3530    4.9880 C   0  0  0  0  0  0  0  0  0  0  0  0
  -15.9830    8.2500    6.0650 O   0  0  0  0  0  0  0  0  0  0  0  0
  -11.4930   -1.3610   -7.6810 O   0  0  0  0  0  0  0  0  0  0  0  0
  1  3  2  0  0  0  0
  1 22  1  0  0  0  0
  2 15  1  0  0  0  0
  2 18  1  0  0  0  0
  3  8  1  0  0  0  0
  3 28  1  0  0  0  0
  4 12  1  0  0  0  0
  4 17  1  0  0  0  0
  4 24  1  0  0  0  0
  5 23  1  0  0  0  0
  5 31  1  0  0  0  0
  6 12  1  0  0  0  0
  6 29  1  0  0  0  0
  6 30  1  0  0  0  0
  7 16  1  0  0  0  0
  7 21  1  0  0  0  0
  8  9  2  0  0  0  0
  9 16  1  0  0  0  0
 10 24  1  0  0  0  0
 10 25  1  0  0  0  0
 10 27  1  0  0  0  0
 11 18  1  0  0  0  0
 11 19  1  0  0  0  0
 11 26  1  0  0  0  0
 13 18  1  0  0  0  0
 13 21  1  0  0  0  0
 14 27  1  0  0  0  0
 15 16  2  0  0  0  0
 15 22  1  0  0  0  0
 17 27  1  0  0  0  0
 19 21  1  0  0  0  0
 20 27  1  0  0  0  0
 23 28  1  0  0  0  0
 25 26  1  0  0  0  0
M  END
>  <Original_Directory>
3aun_A_rec_4ite_tey_lig_tt_min_0_pocket10

>  <Original_Filename>
3aun_A_rec_4ite_tey_lig_tt_min_0_pocket10_gen_sample_10.sdf

>  <Molecule_ID>
sample_10

>  <logS>
-6.1234698

$$$$