/tmp/tmpvil6k93c
  MOE2022           3D

 22 24  0  0  1  0  0  0  0  0999 V2000
   11.2310   14.2880   18.6920 C   0  0  0  0  0  0  0  0  0  0  0  0
    7.7230   12.1510   14.5330 C   0  0  0  0  0  0  0  0  0  0  0  0
   10.1870   12.3980   17.3090 C   0  0  0  0  0  0  0  0  0  0  0  0
    8.6900   14.5250   20.2370 C   0  0  0  0  0  0  0  0  0  0  0  0
    5.1440    7.2880   16.0380 N   0  0  0  0  0  0  0  0  0  0  0  0
    7.8940   11.3600   16.6790 C   0  0  0  0  0  0  0  0  0  0  0  0
    5.6560   10.8720   15.4620 C   0  0  0  0  0  0  0  0  0  0  0  0
    6.0420    6.1060   14.2040 F   0  0  0  0  0  0  0  0  0  0  0  0
   11.2720   11.8760   17.1180 O   0  0  0  0  0  0  0  0  0  0  0  0
    8.9050   12.6850   15.0810 C   0  0  0  0  0  0  0  0  0  0  0  0
   11.1300   15.1540   19.9430 C   0  0  0  0  0  0  0  0  0  0  0  0
   10.0360   13.4220   18.3940 C   0  0  0  0  0  0  0  0  0  0  0  0
    9.3940   12.8360   22.3270 O   0  0  0  0  0  0  0  0  0  0  0  0
    7.0330   11.4660   15.5490 C   0  0  3  0  0  0  0  0  0  0  0  0
    9.0270   12.1270   16.3780 C   0  0  0  0  0  0  0  0  0  0  0  0
   10.0210   14.7990   20.9440 C   0  0  3  0  0  0  0  0  0  0  0  0
    6.0440    8.5100   14.3800 C   0  0  0  0  0  0  0  0  0  0  0  0
    5.0200    8.5800   16.3840 C   0  0  0  0  0  0  0  0  0  0  0  0
   10.4550   13.5750   21.7480 C   0  0  0  0  0  0  0  0  0  0  0  0
    8.8360   13.5460   19.0840 C   0  0  0  0  0  0  0  0  0  0  0  0
    5.8160    7.2380   14.8590 C   0  0  0  0  0  0  0  0  0  0  0  0
    5.5930    9.3580   15.3980 C   0  0  0  0  0  0  0  0  0  0  0  0
  1 11  1  0  0  0  0
  1 12  1  0  0  0  0
  2 10  2  0  0  0  0
  2 14  1  0  0  0  0
  3  9  2  0  0  0  0
  3 12  1  0  0  0  0
  3 15  1  0  0  0  0
  4 16  1  0  0  0  0
  4 20  1  0  0  0  0
  5 18  1  0  0  0  0
  5 21  2  0  0  0  0
  6 14  1  0  0  0  0
  6 15  2  0  0  0  0
  7 14  1  0  0  0  0
  7 22  1  0  0  0  0
  8 21  1  0  0  0  0
 10 15  1  0  0  0  0
 11 16  1  0  0  0  0
 12 20  2  0  0  0  0
 13 19  1  0  0  0  0
 16 19  1  0  0  0  0
 17 21  1  0  0  0  0
 17 22  2  0  0  0  0
 18 22  1  0  0  0  0
M  END
>  <Original_Directory>
1jla_A_rec_1rt1_mkc_lig_tt_min_0_pocket10

>  <Original_Filename>
1jla_A_rec_1rt1_mkc_lig_tt_min_0_pocket10_gen_sample_17.sdf

>  <Molecule_ID>
sample_17

>  <logS>
-3.0174799

$$$$