/tmp/tmpygs9w3lq
  MOE2022           3D

 33 39  0  0  1  0  0  0  0  0999 V2000
   20.5920   61.9460   21.9580 C   0  0  3  0  0  0  0  0  0  0  0  0
   25.4490   63.9800   19.6360 C   0  0  0  0  0  0  0  0  0  0  0  0
   21.4030   66.5120   19.7970 C   0  0  0  0  0  0  0  0  0  0  0  0
   24.7430   61.7150   19.0770 C   0  0  0  0  0  0  0  0  0  0  0  0
   25.9060   59.9270   22.0640 C   0  0  0  0  0  0  0  0  0  0  0  0
   20.4190   65.3950   21.6980 C   0  0  0  0  0  0  0  0  0  0  0  0
   20.4760   60.2480   25.0580 C   0  0  0  0  0  0  0  0  0  0  0  0
   19.8500   63.0570   21.5560 C   0  0  0  0  0  0  0  0  0  0  0  0
   20.8520   66.5600   21.0760 C   0  0  0  0  0  0  0  0  0  0  0  0
   20.9700   64.1650   19.7080 C   0  0  0  0  0  0  0  0  0  0  0  0
   24.0240   61.8670   17.9710 N   0  0  0  0  0  0  0  0  0  0  0  0
   22.4940   65.1800   18.1080 C   0  0  0  0  0  0  0  0  0  0  0  0
   20.0500   61.0040   22.8510 C   0  0  3  0  0  0  0  0  0  0  0  0
   23.6010   64.3080   18.1340 C   0  0  0  0  0  0  0  0  0  0  0  0
   21.8750   61.7500   21.5460 N   0  0  0  0  0  0  0  0  0  0  0  0
   20.4000   64.1960   20.9770 C   0  0  0  0  0  0  0  0  0  0  0  0
   22.2850   60.3930   23.4040 N   0  0  0  0  0  0  0  0  0  0  0  0
   18.3230   60.8310   24.2470 C   0  0  0  0  0  0  0  0  0  0  0  0
   20.9630   60.4690   23.7610 C   0  0  0  0  0  0  0  0  0  0  0  0
   27.4900   59.4600   20.2300 C   0  0  0  0  0  0  0  0  0  0  0  0
   19.1460   60.5500   25.3190 C   0  0  0  0  0  0  0  0  0  0  0  0
   24.9510   62.1500   21.3830 C   0  0  0  0  0  0  0  0  0  0  0  0
   24.9260   60.6320   21.1400 C   0  0  1  0  0  0  0  0  0  0  0  0
   27.2380   59.5270   21.5220 C   0  0  0  0  0  0  0  0  0  0  0  0
   25.1780   60.3970   19.6510 C   0  0  3  0  0  0  0  0  0  0  0  0
   26.6170   60.1550   19.2360 C   0  0  0  0  0  0  0  0  0  0  0  0
   22.5260   60.7400   22.1220 C   0  0  0  0  0  0  0  0  0  0  0  0
   25.0300   62.7130   19.9800 C   0  0  3  0  0  0  0  0  0  0  0  0
   24.7930   64.7550   18.6960 C   0  0  0  0  0  0  0  0  0  0  0  0
   18.7250   60.7260   22.9570 N   0  0  0  0  0  0  0  0  0  0  0  0
   21.5990   65.2820   19.1750 C   0  0  0  0  0  0  0  0  0  0  0  0
   23.5610   59.9990   21.3530 C   0  0  0  0  0  0  0  0  0  0  0  0
   23.5260   63.0380   17.5990 C   0  0  0  0  0  0  0  0  0  0  0  0
  1  8  1  0  0  0  0
  1 13  1  0  0  0  0
  1 15  1  0  0  0  0
  2 28  1  0  0  0  0
  2 29  2  0  0  0  0
  3  9  2  0  0  0  0
  3 31  1  0  0  0  0
  4 11  2  0  0  0  0
  4 25  1  0  0  0  0
  4 28  1  0  0  0  0
  5 23  1  0  0  0  0
  5 24  1  0  0  0  0
  6  9  1  0  0  0  0
  6 16  2  0  0  0  0
  7 19  2  0  0  0  0
  7 21  1  0  0  0  0
  8 16  1  0  0  0  0
 10 16  1  0  0  0  0
 10 31  2  0  0  0  0
 11 33  1  0  0  0  0
 12 14  1  0  0  0  0
 12 31  1  0  0  0  0
 13 19  1  0  0  0  0
 13 30  1  0  0  0  0
 14 29  1  0  0  0  0
 14 33  2  0  0  0  0
 15 27  2  0  0  0  0
 17 19  1  0  0  0  0
 17 27  1  0  0  0  0
 18 21  2  0  0  0  0
 18 30  1  0  0  0  0
 20 24  1  0  0  0  0
 20 26  1  0  0  0  0
 22 23  1  0  0  0  0
 22 28  1  0  0  0  0
 23 25  1  0  0  0  0
 23 32  1  0  0  0  0
 25 26  1  0  0  0  0
 27 32  1  0  0  0  0
M  END
>  <Original_Directory>
3mjw_A_rec_4hvb_19p_lig_tt_min_0_pocket10

>  <Original_Filename>
3mjw_A_rec_4hvb_19p_lig_tt_min_0_pocket10_gen_sample_3.sdf

>  <Molecule_ID>
sample_3

>  <logS>
-5.73527

$$$$