/tmp/tmp22yglbef
  MOE2022           3D

 11 11  0  0  0  0  0  0  0  0999 V2000
   -4.5310   16.7620   30.7220 C   0  0  0  0  0  0  0  0  0  0  0  0
   -5.4230   17.1140   29.8210 N   0  0  0  0  0  0  0  0  0  0  0  0
   -8.6310   19.6760   30.8390 O   0  0  0  0  0  0  0  0  0  0  0  0
   -5.6560   19.1900   32.2790 C   0  0  0  0  0  0  0  0  0  0  0  0
   -4.0760   17.3440   31.8640 C   0  0  0  0  0  0  0  0  0  0  0  0
   -6.4220   18.9790   31.0780 C   0  0  0  0  0  0  0  0  0  0  0  0
   -6.2380   19.9110   33.2880 O   0  0  0  0  0  0  0  0  0  0  0  0
   -4.6140   18.3360   32.6540 C   0  0  0  0  0  0  0  0  0  0  0  0
   -7.4220   19.9990   30.6680 C   0  0  0  0  0  0  0  0  0  0  0  0
   -7.0840   21.0710   30.1720 O   0  0  0  0  0  0  0  0  0  0  0  0
   -6.1320   18.2180   29.9810 C   0  0  0  0  0  0  0  0  0  0  0  0
  1  2  2  0  0  0  0
  1  5  1  0  0  0  0
  2 11  1  0  0  0  0
  3  9  1  0  0  0  0
  4  6  1  0  0  0  0
  4  7  1  0  0  0  0
  4  8  2  0  0  0  0
  5  8  1  0  0  0  0
  6  9  1  0  0  0  0
  6 11  2  0  0  0  0
  9 10  2  0  0  0  0
M  END
>  <Original_Directory>
1mdf_A_rec_1md9_dbh_lig_tt_docked_0_pocket10

>  <Original_Filename>
1mdf_A_rec_1md9_dbh_lig_tt_docked_0_pocket10_gen_sample_19.sdf

>  <Molecule_ID>
sample_19

>  <logS>
-0.20652001

$$$$