/tmp/tmpxrf3hfzd
  MOE2022           3D

 12 13  0  0  1  0  0  0  0  0999 V2000
   82.6570  -46.1670   24.0480 C   0  0  0  0  0  0  0  0  0  0  0  0
   82.3420  -43.1330   24.6450 N   0  0  0  0  0  0  0  0  0  0  0  0
   82.5130  -45.4460   25.3750 C   0  0  0  0  0  0  0  0  0  0  0  0
   82.5740  -44.2360   22.4740 C   0  0  0  0  0  0  0  0  0  0  0  0
   83.2680  -44.1270   25.2220 C   0  0  3  0  0  0  0  0  0  0  0  0
   82.4640  -44.1940   21.2340 O   0  0  0  0  0  0  0  0  0  0  0  0
   80.9160  -42.4070   22.7290 C   0  0  0  0  0  0  0  0  0  0  0  0
   84.3160  -44.4310   24.1420 C   0  0  0  0  0  0  0  0  0  0  0  0
   79.9760  -42.9410   22.0760 O   0  0  0  0  0  0  0  0  0  0  0  0
   81.9340  -43.2720   23.3290 C   0  0  0  0  0  0  0  0  0  0  0  0
   83.4840  -45.2510   23.1520 C   0  0  3  0  0  0  0  0  0  0  0  0
   81.0840  -41.1740   22.8830 O   0  0  0  0  0  0  0  0  0  0  0  0
  1  3  1  0  0  0  0
  1 11  1  0  0  0  0
  2  5  1  0  0  0  0
  2 10  2  0  0  0  0
  3  5  1  0  0  0  0
  4  6  2  0  0  0  0
  4 10  1  0  0  0  0
  4 11  1  0  0  0  0
  5  8  1  0  0  0  0
  7  9  2  0  0  0  0
  7 10  1  0  0  0  0
  7 12  1  0  0  0  0
  8 11  1  0  0  0  0
M  END
>  <Original_Directory>
4bde_A_rec_4bda_vfb_lig_tt_min_0_pocket10

>  <Original_Filename>
4bde_A_rec_4bda_vfb_lig_tt_min_0_pocket10_gen_sample_9.sdf

>  <Molecule_ID>
sample_9

>  <logS>
-1.00332

$$$$