/tmp/tmp0bcqtw49
  MOE2022           3D

 28 30  0  0  1  0  0  0  0  0999 V2000
   45.4010   41.8150   15.0530 C   0  0  0  0  0  0  0  0  0  0  0  0
   46.3400   42.7900   14.6790 C   0  0  0  0  0  0  0  0  0  0  0  0
   37.1900   36.6680   12.3650 C   0  0  0  0  0  0  0  0  0  0  0  0
   42.3960   35.6610   15.8950 C   0  0  0  0  0  0  0  0  0  0  0  0
   45.2230   42.9380   12.5230 C   0  0  0  0  0  0  0  0  0  0  0  0
   42.4980   33.4020   15.1470 O   0  0  0  0  0  0  0  0  0  0  0  0
   45.5110   36.8370   17.7580 C   0  0  0  0  0  0  0  0  0  0  0  0
   44.8000   35.4450   15.1940 C   0  0  0  0  0  0  0  0  0  0  0  0
   44.0800   42.3550   13.0930 C   0  0  0  0  0  0  0  0  0  0  0  0
   45.7510   40.8830   16.1660 C   0  0  0  0  0  0  0  0  0  0  0  0
   40.1700   36.5070   13.6110 C   0  0  0  0  0  0  0  0  0  0  0  0
   46.1900   36.0450   15.4580 C   0  0  0  0  0  0  0  0  0  0  0  0
   39.6310   35.2660   14.0090 C   0  0  0  0  0  0  0  0  0  0  0  0
   37.2400   35.4130   13.0240 C   0  0  0  0  0  0  0  0  0  0  0  0
   39.4780   33.7860   16.0950 C   0  0  0  0  0  0  0  0  0  0  0  0
   46.2880   43.2940   13.3690 C   0  0  0  0  0  0  0  0  0  0  0  0
   45.7620   39.6270   16.4890 C   0  0  0  0  0  0  0  0  0  0  0  0
   40.1300   34.0470   17.3820 N   0  0  0  0  0  0  0  0  0  0  0  0
   44.1690   41.7710   14.3710 C   0  0  0  0  0  0  0  0  0  0  0  0
   46.2270   37.2160   16.4530 C   0  0  3  0  0  0  0  0  0  0  0  0
   45.5290   38.3920   15.8340 N   0  0  0  0  0  0  0  0  0  0  0  0
   40.3420   34.3400   14.9700 C   0  0  3  0  0  0  0  0  0  0  0  0
   39.4080   37.5340   13.0770 C   0  0  0  0  0  0  0  0  0  0  0  0
   38.3680   34.8800   13.5760 C   0  0  0  0  0  0  0  0  0  0  0  0
   44.1320   36.1770   17.6350 C   0  0  0  0  0  0  0  0  0  0  0  0
   41.8140   34.4200   15.2970 C   0  0  0  0  0  0  0  0  0  0  0  0
   43.7170   35.7550   16.2300 C   0  0  3  0  0  0  0  0  0  0  0  0
   38.0900   37.6450   12.7090 C   0  0  0  0  0  0  0  0  0  0  0  0
  1  2  1  0  0  0  0
  1 10  1  0  0  0  0
  1 19  2  0  0  0  0
  2 16  2  0  0  0  0
  3 14  1  0  0  0  0
  3 28  2  0  0  0  0
  4 26  1  0  0  0  0
  4 27  1  0  0  0  0
  5  9  2  0  0  0  0
  5 16  1  0  0  0  0
  6 26  2  0  0  0  0
  7 20  1  0  0  0  0
  7 25  2  0  0  0  0
  8 12  1  0  0  0  0
  8 27  1  0  0  0  0
  9 19  1  0  0  0  0
 10 17  2  0  0  0  0
 11 13  1  0  0  0  0
 11 23  2  0  0  0  0
 12 20  1  0  0  0  0
 13 22  1  0  0  0  0
 13 24  2  0  0  0  0
 14 24  1  0  0  0  0
 15 18  1  0  0  0  0
 15 22  1  0  0  0  0
 17 21  1  0  0  0  0
 20 21  1  0  0  0  0
 22 26  1  0  0  0  0
 23 28  1  0  0  0  0
 25 27  1  0  0  0  0
M  END
>  <Original_Directory>
3o95_A_rec_4pnz_2vh_lig_tt_min_0_pocket10

>  <Original_Filename>
3o95_A_rec_4pnz_2vh_lig_tt_min_0_pocket10_gen_sample_11.sdf

>  <Molecule_ID>
sample_11

>  <logS>
-3.7449999

$$$$