/tmp/tmpxdm_cmmh
  MOE2022           3D

 26 31  0  0  1  0  0  0  0  0999 V2000
   41.6940   34.7350   11.8880 C   0  0  0  0  0  0  0  0  0  0  0  0
   40.9770   35.2270   12.9710 C   0  0  0  0  0  0  0  0  0  0  0  0
   42.8940   35.4380   16.5440 C   0  0  0  0  0  0  0  0  0  0  0  0
   39.4080   33.5420   15.2090 F   0  0  0  0  0  0  0  0  0  0  0  0
   39.0880   35.7660   14.4020 C   0  0  3  0  0  0  0  0  0  0  0  0
   41.2300   34.6800   14.2270 C   0  0  0  0  0  0  0  0  0  0  0  0
   45.5000   36.9860   18.8350 C   0  0  0  0  0  0  0  0  0  0  0  0
   37.3210   37.3330   13.9350 C   0  0  0  0  0  0  0  0  0  0  0  0
   39.7070   35.9940   13.0290 C   0  0  3  0  0  0  0  0  0  0  0  0
   43.3510   34.5840   15.5260 C   0  0  0  0  0  0  0  0  0  0  0  0
   42.5420   33.6320   12.1030 C   0  0  0  0  0  0  0  0  0  0  0  0
   40.3610   35.2310   16.5120 C   0  0  0  0  0  0  0  0  0  0  0  0
   37.5830   35.8390   14.1660 C   0  0  3  0  0  0  0  0  0  0  0  0
   37.0770   35.2250   12.8650 C   0  0  0  0  0  0  0  0  0  0  0  0
   45.0050   36.2370   17.6200 C   0  0  0  0  0  0  0  0  0  0  0  0
   42.5030   34.1380   14.4500 C   0  0  0  0  0  0  0  0  0  0  0  0
   44.5930   34.0770   15.5920 N   0  0  0  0  0  0  0  0  0  0  0  0
   39.3130   37.3100   12.4150 C   0  0  0  0  0  0  0  0  0  0  0  0
   37.8030   37.5070   12.5140 C   0  0  3  0  0  0  0  0  0  0  0  0
   45.9500   35.3800   17.0640 C   0  0  0  0  0  0  0  0  0  0  0  0
   40.0150   34.7680   15.1150 C   0  0  2  0  0  0  0  0  0  0  0  0
   41.5650   35.3280   17.0660 C   0  0  0  0  0  0  0  0  0  0  0  0
   45.7140   34.7480   15.8680 C   0  0  0  0  0  0  0  0  0  0  0  0
   42.9370   33.3060   13.4020 C   0  0  0  0  0  0  0  0  0  0  0  0
   43.7340   36.4190   17.1030 C   0  0  0  0  0  0  0  0  0  0  0  0
   37.1590   36.3170   11.7960 C   0  0  0  0  0  0  0  0  0  0  0  0
  1  2  1  0  0  0  0
  1 11  2  0  0  0  0
  2  6  2  0  0  0  0
  2  9  1  0  0  0  0
  3 10  2  0  0  0  0
  3 22  1  0  0  0  0
  3 25  1  0  0  0  0
  4 21  1  0  0  0  0
  5  9  1  0  0  0  0
  5 13  1  0  0  0  0
  5 21  1  0  0  0  0
  6 16  1  0  0  0  0
  6 21  1  0  0  0  0
  7 15  1  0  0  0  0
  8 13  1  0  0  0  0
  8 19  1  0  0  0  0
  9 18  1  0  0  0  0
 10 16  1  0  0  0  0
 10 17  1  0  0  0  0
 11 24  1  0  0  0  0
 12 21  1  0  0  0  0
 12 22  1  0  0  0  0
 13 14  1  0  0  0  0
 14 26  1  0  0  0  0
 15 20  2  0  0  0  0
 15 25  1  0  0  0  0
 16 24  2  0  0  0  0
 17 23  2  0  0  0  0
 18 19  1  0  0  0  0
 19 26  1  0  0  0  0
 20 23  1  0  0  0  0
M  END
>  <Original_Directory>
2fjp_A_rec_3o95_01t_lig_tt_docked_1_pocket10

>  <Original_Filename>
2fjp_A_rec_3o95_01t_lig_tt_docked_1_pocket10_gen_sample_12.sdf

>  <Molecule_ID>
sample_12

>  <logS>
-6.4229102

$$$$