/tmp/tmp0yebujxn
  MOE2022           3D

 31 36  0  0  1  0  0  0  0  0999 V2000
    7.5160    5.3710   20.4330 C   0  0  0  0  0  0  0  0  0  0  0  0
   11.1120    9.0160   23.8400 C   0  0  0  0  0  0  0  0  0  0  0  0
   12.3280   -0.8970   17.5620 C   0  0  0  0  0  0  0  0  0  0  0  0
    8.1190    7.8690   22.9650 C   0  0  3  0  0  0  0  0  0  0  0  0
    9.2720    7.4030   25.0480 C   0  0  0  0  0  0  0  0  0  0  0  0
   13.2740    7.1220   25.9950 C   0  0  0  0  0  0  0  0  0  0  0  0
   12.0490    1.4940   17.7000 C   0  0  0  0  0  0  0  0  0  0  0  0
   13.5460    7.4410   23.6980 N   0  0  0  0  0  0  0  0  0  0  0  0
    7.7240    6.6630   22.4850 C   0  0  0  0  0  0  0  0  0  0  0  0
   10.5830    7.3740   25.4780 C   0  0  0  0  0  0  0  0  0  0  0  0
    9.7830    9.0740   23.5390 C   0  0  0  0  0  0  0  0  0  0  0  0
    8.3470    6.5900   18.5440 C   0  0  0  0  0  0  0  0  0  0  0  0
    7.4740    6.5730   21.1340 C   0  0  0  0  0  0  0  0  0  0  0  0
    8.0560    7.7890   19.1810 C   0  0  0  0  0  0  0  0  0  0  0  0
    7.9750    5.3820   19.1160 C   0  0  0  0  0  0  0  0  0  0  0  0
   11.5170    8.0120   24.6830 C   0  0  0  0  0  0  0  0  0  0  0  0
   12.3560    6.5620   26.8680 C   0  0  0  0  0  0  0  0  0  0  0  0
   10.6660    1.3250   17.7210 C   0  0  0  0  0  0  0  0  0  0  0  0
    7.4560    7.7650   20.4290 C   0  0  0  0  0  0  0  0  0  0  0  0
    7.2060    8.9380   21.1010 C   0  0  0  0  0  0  0  0  0  0  0  0
    8.9980    8.0860   23.9120 C   0  0  0  0  0  0  0  0  0  0  0  0
   10.9990    6.6740   26.5980 C   0  0  0  0  0  0  0  0  0  0  0  0
    9.3610    3.3570   18.6740 N   0  0  0  0  0  0  0  0  0  0  0  0
    8.1640    4.1260   18.3080 C   0  0  0  0  0  0  0  0  0  0  0  0
   12.8140    7.5800   24.7630 C   0  0  0  0  0  0  0  0  0  0  0  0
    7.8420    8.9740   22.2920 C   0  0  3  0  0  0  0  0  0  0  0  0
   10.1330    0.0650   17.4990 C   0  0  0  0  0  0  0  0  0  0  0  0
   10.9740   -1.0220   17.3130 C   0  0  0  0  0  0  0  0  0  0  0  0
   12.8750    0.3790   17.7310 C   0  0  0  0  0  0  0  0  0  0  0  0
    8.9670   10.1370   22.5770 S   0  0  0  0  0  0  0  0  0  0  0  0
    9.7600    2.5150   17.5600 C   0  0  0  0  0  0  0  0  0  0  0  0
  1 13  1  0  0  0  0
  1 15  2  0  0  0  0
  2 11  2  0  0  0  0
  2 16  1  0  0  0  0
  3 28  2  0  0  0  0
  3 29  1  0  0  0  0
  4  9  1  0  0  0  0
  4 21  1  0  0  0  0
  4 26  1  0  0  0  0
  5 10  1  0  0  0  0
  5 21  2  0  0  0  0
  6 17  2  0  0  0  0
  6 25  1  0  0  0  0
  7 18  1  0  0  0  0
  7 29  2  0  0  0  0
  8 25  1  0  0  0  0
  9 13  1  0  0  0  0
 10 16  1  0  0  0  0
 10 22  2  0  0  0  0
 11 21  1  0  0  0  0
 11 30  1  0  0  0  0
 12 14  2  0  0  0  0
 12 15  1  0  0  0  0
 13 19  2  0  0  0  0
 14 19  1  0  0  0  0
 15 24  1  0  0  0  0
 16 25  2  0  0  0  0
 17 22  1  0  0  0  0
 18 27  2  0  0  0  0
 18 31  1  0  0  0  0
 19 20  1  0  0  0  0
 20 26  1  0  0  0  0
 23 24  1  0  0  0  0
 23 31  1  0  0  0  0
 26 30  1  0  0  0  0
 27 28  1  0  0  0  0
M  END
>  <Original_Directory>
1iqm_L_rec_1iqm_xmk_lig_tt_docked_1_pocket10

>  <Original_Filename>
1iqm_L_rec_1iqm_xmk_lig_tt_docked_1_pocket10_gen_sample_8.sdf

>  <Molecule_ID>
sample_8

>  <logS>
-7.5851102

$$$$