/tmp/tmp458870zf
  MOE2022           3D

 27 31  0  0  1  0  0  0  0  0999 V2000
    3.5500   45.0840    2.5680 C   0  0  3  0  0  0  0  0  0  0  0  0
    1.8540   44.0220   -1.3390 Cl  0  0  0  0  0  0  0  0  0  0  0  0
    5.8890   44.7700    5.0620 C   0  0  0  0  0  0  0  0  0  0  0  0
    0.2920   47.1330    8.5680 C   0  0  0  0  0  0  0  0  0  0  0  0
    1.9490   47.3250    6.6280 C   0  0  0  0  0  0  0  0  0  0  0  0
    1.4910   45.9930    3.4150 C   0  0  0  0  0  0  0  0  0  0  0  0
    4.2310   43.8430    2.0000 C   0  0  0  0  0  0  0  0  0  0  0  0
    2.3130   43.8850    0.3620 C   0  0  3  0  0  0  0  0  0  0  0  0
    3.6750   45.3430    4.0430 C   0  0  0  0  0  0  0  0  0  0  0  0
   -0.0090   46.3950    9.7010 N   0  0  0  0  0  0  0  0  0  0  0  0
    2.0210   44.8090    2.5330 C   0  0  3  0  0  0  0  0  0  0  0  0
   -0.3810   49.2540    7.3510 C   0  0  0  0  0  0  0  0  0  0  0  0
    6.7020   45.2240    8.5280 O   0  0  0  0  0  0  0  0  0  0  0  0
    4.6530   45.3900    5.0190 N   0  0  0  0  0  0  0  0  0  0  0  0
   -0.5440   48.2510    8.2870 C   0  0  0  0  0  0  0  0  0  0  0  0
    6.4380   44.5120    6.2880 C   0  0  0  0  0  0  0  0  0  0  0  0
    2.7980   46.4370    5.8150 C   0  0  0  0  0  0  0  0  0  0  0  0
    4.1610   46.0600    6.1290 C   0  0  0  0  0  0  0  0  0  0  0  0
    1.7450   45.0690    1.0860 N   0  0  0  0  0  0  0  0  0  0  0  0
    3.8320   43.7830    0.5230 C   0  0  0  0  0  0  0  0  0  0  0  0
    7.2550   43.2700    6.5590 C   0  0  0  0  0  0  0  0  0  0  0  0
    0.6490   49.4640    6.4280 C   0  0  0  0  0  0  0  0  0  0  0  0
    2.5310   45.9590    4.5280 C   0  0  0  0  0  0  0  0  0  0  0  0
    4.9150   46.1600    7.3100 C   0  0  0  0  0  0  0  0  0  0  0  0
    1.4450   46.8110    7.8270 C   0  0  0  0  0  0  0  0  0  0  0  0
    1.7320   48.6240    6.1240 C   0  0  0  0  0  0  0  0  0  0  0  0
    6.0890   45.3870    7.4040 C   0  0  0  0  0  0  0  0  0  0  0  0
  1  7  1  0  0  0  0
  1  9  1  0  0  0  0
  1 11  1  0  0  0  0
  2  8  1  0  0  0  0
  3 14  1  0  0  0  0
  3 16  2  0  0  0  0
  4 10  1  0  0  0  0
  4 15  1  0  0  0  0
  4 25  2  0  0  0  0
  5 17  1  0  0  0  0
  5 25  1  0  0  0  0
  5 26  2  0  0  0  0
  6 11  1  0  0  0  0
  6 23  1  0  0  0  0
  7 20  1  0  0  0  0
  8 19  1  0  0  0  0
  8 20  1  0  0  0  0
  9 14  1  0  0  0  0
  9 23  2  0  0  0  0
 11 19  1  0  0  0  0
 12 15  1  0  0  0  0
 12 22  2  0  0  0  0
 13 27  1  0  0  0  0
 14 18  1  0  0  0  0
 16 21  1  0  0  0  0
 16 27  1  0  0  0  0
 17 18  2  0  0  0  0
 17 23  1  0  0  0  0
 18 24  1  0  0  0  0
 22 26  1  0  0  0  0
 24 27  2  0  0  0  0
M  END
>  <Original_Directory>
5cf4_A_rec_5tq3_7gz_lig_tt_min_0_pocket10

>  <Original_Filename>
5cf4_A_rec_5tq3_7gz_lig_tt_min_0_pocket10_gen_sample_15.sdf

>  <Molecule_ID>
sample_15

>  <logS>
-2.96684

$$$$