/tmp/tmpxkekp6hz
  MOE2022           3D

 17 18  0  0  1  0  0  0  0  0999 V2000
   16.4830  -36.9550   27.2590 O   0  0  0  0  0  0  0  0  0  0  0  0
   15.3100  -32.8570   24.8710 C   0  0  0  0  0  0  0  0  0  0  0  0
   15.3770  -35.2330   24.3610 C   0  0  0  0  0  0  0  0  0  0  0  0
   16.4650  -35.2530   25.2210 C   0  0  3  0  0  0  0  0  0  0  0  0
   17.1310  -34.1190   25.5640 N   0  0  0  0  0  0  0  0  0  0  0  0
   17.0280  -36.8120   25.8890 P   0  0  0  0  0  0  0  0  0  0  0  0
   18.5330  -36.7080   25.9180 O   0  0  0  0  0  0  0  0  0  0  0  0
   14.4190  -31.7730   24.6150 C   0  0  0  0  0  0  0  0  0  0  0  0
   13.4990  -33.5950   23.6150 C   0  0  0  0  0  0  0  0  0  0  0  0
   16.3300  -30.0880   24.8300 O   0  0  0  0  0  0  0  0  0  0  0  0
   13.3080  -32.2210   23.8810 C   0  0  0  0  0  0  0  0  0  0  0  0
   14.4240  -29.8190   26.2560 O   0  0  0  0  0  0  0  0  0  0  0  0
   16.5560  -37.8710   24.9440 O   0  0  0  0  0  0  0  0  0  0  0  0
   16.4640  -32.9370   25.6000 N   0  0  0  0  0  0  0  0  0  0  0  0
   14.8670  -30.1410   24.8960 S   0  0  0  0  0  0  0  0  0  0  0  0
   14.7070  -34.0030   24.2760 C   0  0  0  0  0  0  0  0  0  0  0  0
   14.2310  -29.3370   23.8730 O   0  0  0  0  0  0  0  0  0  0  0  0
  1  6  1  0  0  0  0
  2  8  2  0  0  0  0
  2 14  1  0  0  0  0
  2 16  1  0  0  0  0
  3  4  1  0  0  0  0
  3 16  2  0  0  0  0
  4  5  1  0  0  0  0
  4  6  1  0  0  0  0
  5 14  2  0  0  0  0
  6  7  1  0  0  0  0
  6 13  2  0  0  0  0
  8 11  1  0  0  0  0
  8 15  1  0  0  0  0
  9 11  2  0  0  0  0
  9 16  1  0  0  0  0
 10 15  1  0  0  0  0
 12 15  1  0  0  0  0
 15 17  1  0  0  0  0
M  END
>  <Original_Directory>
2qis_A_rec_4ng6_ris_lig_tt_docked_2_pocket10

>  <Original_Filename>
2qis_A_rec_4ng6_ris_lig_tt_docked_2_pocket10_gen_sample_15.sdf

>  <Molecule_ID>
sample_15

>  <logS>
-0.81755

$$$$