/tmp/tmpibkhoxqu
  MOE2022           3D

 30 33  0  0  1  0  0  0  0  0999 V2000
   53.6460  109.7470   33.8670 C   0  0  0  0  0  0  0  0  0  0  0  0
   53.7360  108.3340   36.3280 C   0  0  3  0  0  0  0  0  0  0  0  0
   56.8060  110.6600   34.4730 C   0  0  0  0  0  0  0  0  0  0  0  0
   55.5320  111.1860   34.6390 C   0  0  3  0  0  0  0  0  0  0  0  0
   54.4780  110.2290   34.8780 C   0  0  3  0  0  0  0  0  0  0  0  0
   52.6270  108.2650   38.7490 C   0  0  0  0  0  0  0  0  0  0  0  0
   53.2830  108.3890   33.8640 C   0  0  0  0  0  0  0  0  0  0  0  0
   53.6870  106.2270   34.8970 C   0  0  0  0  0  0  0  0  0  0  0  0
   55.2860  112.5610   34.7000 C   0  0  0  0  0  0  0  0  0  0  0  0
   52.7010  107.7650   32.7370 C   0  0  0  0  0  0  0  0  0  0  0  0
   52.6310  110.8180   41.3800 O   0  0  0  0  0  0  0  0  0  0  0  0
   57.8270  112.3770   32.9990 C   0  0  0  0  0  0  0  0  0  0  0  0
   53.0800  105.8360   31.4380 O   0  0  0  0  0  0  0  0  0  0  0  0
   54.7380  110.2890   37.2510 O   0  0  0  0  0  0  0  0  0  0  0  0
   53.5530  107.7090   37.6740 C   0  0  0  0  0  0  0  0  0  0  0  0
   51.1730  105.9220   32.6210 O   0  0  0  0  0  0  0  0  0  0  0  0
   57.0840  113.5160   33.2810 C   0  0  0  0  0  0  0  0  0  0  0  0
   52.5380  106.2910   32.6580 C   0  0  0  0  0  0  0  0  0  0  0  0
   52.1590  109.9000   40.5080 C   0  0  0  0  0  0  0  0  0  0  0  0
   56.0160  113.5980   34.1610 C   0  0  0  0  0  0  0  0  0  0  0  0
   54.3300  109.6710   36.2420 C   0  0  0  0  0  0  0  0  0  0  0  0
   52.8760  109.5350   39.3420 C   0  0  0  0  0  0  0  0  0  0  0  0
   53.5400  107.6270   35.0650 C   0  0  3  0  0  0  0  0  0  0  0  0
   53.1850  105.5890   33.7770 C   0  0  0  0  0  0  0  0  0  0  0  0
   57.5170  114.6470   32.6930 F   0  0  0  0  0  0  0  0  0  0  0  0
   50.7340  107.9590   40.2610 C   0  0  0  0  0  0  0  0  0  0  0  0
   51.5530  107.4790   39.2160 C   0  0  0  0  0  0  0  0  0  0  0  0
   57.8120  111.1890   33.6900 C   0  0  0  0  0  0  0  0  0  0  0  0
   54.2230  106.7160   37.9520 O   0  0  0  0  0  0  0  0  0  0  0  0
   50.9600  109.2250   40.8250 C   0  0  0  0  0  0  0  0  0  0  0  0
  1  5  1  0  0  0  0
  1  7  2  0  0  0  0
  2 15  1  0  0  0  0
  2 21  1  0  0  0  0
  2 23  1  0  0  0  0
  3  4  1  0  0  0  0
  3 28  2  0  0  0  0
  4  5  1  0  0  0  0
  4  9  1  0  0  0  0
  5 21  1  0  0  0  0
  6 15  1  0  0  0  0
  6 22  2  0  0  0  0
  6 27  1  0  0  0  0
  7 10  1  0  0  0  0
  7 23  1  0  0  0  0
  8 23  1  0  0  0  0
  8 24  2  0  0  0  0
  9 20  2  0  0  0  0
 10 18  1  0  0  0  0
 11 19  1  0  0  0  0
 12 17  2  0  0  0  0
 12 28  1  0  0  0  0
 13 18  1  0  0  0  0
 14 21  2  0  0  0  0
 15 29  2  0  0  0  0
 16 18  1  0  0  0  0
 17 20  1  0  0  0  0
 17 25  1  0  0  0  0
 18 24  1  0  0  0  0
 19 22  1  0  0  0  0
 19 30  2  0  0  0  0
 26 27  2  0  0  0  0
 26 30  1  0  0  0  0
M  END
>  <Original_Directory>
4ajd_A_rec_5edg_5mg_lig_tt_min_0_pocket10

>  <Original_Filename>
4ajd_A_rec_5edg_5mg_lig_tt_min_0_pocket10_gen_sample_10.sdf

>  <Molecule_ID>
sample_10

>  <logS>
-3.59236

$$$$