
  MOE2022           3D

 14 15  0  0  1  0  0  0  0  0999 V2000
   84.7780  -43.4390   27.5500 O   0  0  0  0  0  0  0  0  0  0  0  0
   81.9550  -41.0970   25.5170 C   0  0  1  0  0  0  0  0  0  0  0  0
   82.9850  -43.3250   24.8550 C   0  0  3  0  0  0  0  0  0  0  0  0
   81.9490  -39.7510   26.0430 C   0  0  0  0  0  0  0  0  0  0  0  0
   83.0930  -43.0620   25.9870 O   0  0  0  0  0  0  0  0  0  0  0  0
   84.0110  -42.7220   24.8280 C   0  0  3  0  0  0  0  0  0  0  0  0
   85.2230  -43.3380   25.4040 C   0  0  3  0  0  0  0  0  0  0  0  0
   81.7140  -40.7520   24.1450 O   0  0  0  0  0  0  0  0  0  0  0  0
   82.7910  -40.3660   25.0800 F   0  0  0  0  0  0  0  0  0  0  0  0
   85.0860  -42.1210   25.3360 O   0  0  0  0  0  0  0  0  0  0  0  0
   85.4170  -42.8520   26.5610 C   0  0  3  0  0  0  0  0  0  0  0  0
   86.1950  -40.9160   27.2610 O   0  0  0  0  0  0  0  0  0  0  0  0
   81.9150  -42.6340   25.3890 C   0  0  3  0  0  0  0  0  0  0  0  0
   85.2960  -41.5480   26.7780 O   0  0  0  0  0  0  0  0  0  0  0  0
  1 11  1  0  0  0  0
  2  4  1  0  0  0  0
  2  8  1  0  0  0  0
  2  9  1  0  0  0  0
  2 13  1  0  0  0  0
  3  5  1  0  0  0  0
  3  6  1  0  0  0  0
  3 13  1  0  0  0  0
  5 13  1  0  0  0  0
  6  7  1  0  0  0  0
  6 10  1  0  0  0  0
  7 10  1  0  0  0  0
  7 11  1  0  0  0  0
 11 14  1  0  0  0  0
 12 14  1  0  0  0  0
M  END
>  <Original_Directory>
4a9s_A_rec_4bdk_rqq_lig_tt_min_0_pocket10

>  <Original_Filename>
4a9s_A_rec_4bdk_rqq_lig_tt_min_0_pocket10_gen_sample_9.sdf

>  <Molecule_ID>
sample_9

>  <logS>
-0.40803

$$$$