/tmp/tmpqz3pg5tx
  MOE2022           3D

 20 23  0  0  1  0  0  0  0  0999 V2000
  -18.9260  -11.1330   45.7110 C   0  0  3  0  0  0  0  0  0  0  0  0
  -21.8400  -13.6290   49.1020 C   0  0  0  0  0  0  0  0  0  0  0  0
  -21.6750  -16.1880   48.1980 C   0  0  0  0  0  0  0  0  0  0  0  0
  -20.6180  -13.0070   46.0410 C   0  0  0  0  0  0  0  0  0  0  0  0
  -19.4590  -16.1780   47.5710 C   0  0  0  0  0  0  0  0  0  0  0  0
  -21.5160  -17.3980   47.5680 C   0  0  0  0  0  0  0  0  0  0  0  0
  -22.7870  -15.8540   48.9160 C   0  0  0  0  0  0  0  0  0  0  0  0
  -19.9870  -12.0250   45.1030 C   0  0  0  0  0  0  0  0  0  0  0  0
  -20.2900  -13.0730   47.3620 C   0  0  0  0  0  0  0  0  0  0  0  0
  -19.2900  -12.0970   47.9490 C   0  0  0  0  0  0  0  0  0  0  0  0
  -19.0580  -10.9880   47.1740 N   0  0  0  0  0  0  0  0  0  0  0  0
  -18.7150  -12.3190   49.0000 O   0  0  0  0  0  0  0  0  0  0  0  0
  -20.5900  -15.3530   48.0650 C   0  0  0  0  0  0  0  0  0  0  0  0
  -17.5540  -11.6900   45.3720 C   0  0  0  0  0  0  0  0  0  0  0  0
  -22.6070  -18.2600   47.4650 C   0  0  0  0  0  0  0  0  0  0  0  0
  -22.9180  -14.5070   49.3150 C   0  0  0  0  0  0  0  0  0  0  0  0
  -20.8200  -14.0210   48.2220 N   0  0  0  0  0  0  0  0  0  0  0  0
  -23.8180  -16.8020   48.9910 C   0  0  0  0  0  0  0  0  0  0  0  0
  -20.1760  -17.3420   46.8690 C   0  0  0  0  0  0  0  0  0  0  0  0
  -23.7340  -17.9910   48.2610 C   0  0  0  0  0  0  0  0  0  0  0  0
  1  8  1  0  0  0  0
  1 11  1  0  0  0  0
  1 14  1  0  0  0  0
  2 16  1  0  0  0  0
  2 17  1  0  0  0  0
  3  6  1  0  0  0  0
  3  7  1  0  0  0  0
  3 13  2  0  0  0  0
  4  8  1  0  0  0  0
  4  9  2  0  0  0  0
  5 13  1  0  0  0  0
  5 19  1  0  0  0  0
  6 15  2  0  0  0  0
  6 19  1  0  0  0  0
  7 16  2  0  0  0  0
  7 18  1  0  0  0  0
  9 10  1  0  0  0  0
  9 17  1  0  0  0  0
 10 11  1  0  0  0  0
 10 12  2  0  0  0  0
 13 17  1  0  0  0  0
 15 20  1  0  0  0  0
 18 20  2  0  0  0  0
M  END
>  <Original_Directory>
2hgz_A_rec_2hgz_pbf_lig_tt_docked_0_pocket10

>  <Original_Filename>
2hgz_A_rec_2hgz_pbf_lig_tt_docked_0_pocket10_gen_sample_16.sdf

>  <Molecule_ID>
sample_16

>  <logS>
-2.9182999

$$$$