/tmp/tmpqey1hcie
  MOE2022           3D

 23 25  0  0  1  0  0  0  0  0999 V2000
  -13.9460  -26.5530   13.5530 C   0  0  0  0  0  0  0  0  0  0  0  0
  -15.9060  -28.6600   12.7770 C   0  0  0  0  0  0  0  0  0  0  0  0
  -15.9830  -29.9300   14.8050 N   0  0  0  0  0  0  0  0  0  0  0  0
  -14.8610  -28.2170   11.9950 C   0  0  0  0  0  0  0  0  0  0  0  0
  -14.1750  -29.0350   11.1280 C   0  0  0  0  0  0  0  0  0  0  0  0
  -15.9780  -31.0350   12.6210 C   0  0  0  0  0  0  0  0  0  0  0  0
  -15.0550  -31.2840   11.6230 C   0  0  0  0  0  0  0  0  0  0  0  0
  -14.2830  -30.3860   10.9650 C   0  0  0  0  0  0  0  0  0  0  0  0
  -14.5490  -25.7630   14.2760 O   0  0  0  0  0  0  0  0  0  0  0  0
  -11.5200  -26.8910   13.6230 C   0  0  0  0  0  0  0  0  0  0  0  0
  -11.3210  -25.4780   13.2230 C   0  0  0  0  0  0  0  0  0  0  0  0
  -15.9440  -29.8940   13.4050 C   0  0  3  0  0  0  0  0  0  0  0  0
  -11.8210  -29.2640   14.8840 C   0  0  0  0  0  0  0  0  0  0  0  0
  -10.6870  -29.0490   14.1910 N   0  0  0  0  0  0  0  0  0  0  0  0
  -11.1220  -24.6320   14.1440 O   0  0  0  0  0  0  0  0  0  0  0  0
  -14.7840  -29.8910   15.6560 C   0  0  0  0  0  0  0  0  0  0  0  0
  -12.8850  -28.3700   14.9130 C   0  0  0  0  0  0  0  0  0  0  0  0
  -11.4160  -25.1940   11.9930 O   0  0  0  0  0  0  0  0  0  0  0  0
  -10.5030  -27.8420   13.6190 C   0  0  0  0  0  0  0  0  0  0  0  0
  -17.0200  -31.9060   12.7410 O   0  0  0  0  0  0  0  0  0  0  0  0
  -14.0610  -28.5670   15.8440 C   0  0  0  0  0  0  0  0  0  0  0  0
  -12.7860  -27.2840   14.0330 C   0  0  0  0  0  0  0  0  0  0  0  0
  -14.4090  -26.7700   12.1120 C   0  0  0  0  0  0  0  0  0  0  0  0
  1  9  2  0  0  0  0
  1 22  1  0  0  0  0
  1 23  1  0  0  0  0
  2  4  2  0  0  0  0
  2 12  1  0  0  0  0
  3 12  1  0  0  0  0
  3 16  1  0  0  0  0
  4  5  1  0  0  0  0
  4 23  1  0  0  0  0
  5  8  2  0  0  0  0
  6  7  2  0  0  0  0
  6 12  1  0  0  0  0
  6 20  1  0  0  0  0
  7  8  1  0  0  0  0
 10 11  1  0  0  0  0
 10 19  2  0  0  0  0
 10 22  1  0  0  0  0
 11 15  1  0  0  0  0
 11 18  2  0  0  0  0
 13 14  2  0  0  0  0
 13 17  1  0  0  0  0
 14 19  1  0  0  0  0
 16 21  1  0  0  0  0
 17 21  1  0  0  0  0
 17 22  2  0  0  0  0
M  END
>  <Original_Directory>
1ivb_A_rec_1b9t_rai_lig_tt_min_0_pocket10

>  <Original_Filename>
1ivb_A_rec_1b9t_rai_lig_tt_min_0_pocket10_gen_sample_12.sdf

>  <Molecule_ID>
sample_12

>  <logS>
-1.58375

$$$$