/tmp/tmpyf53opmt
  MOE2022           3D

  9  9  0  0  1  0  0  0  0  0999 V2000
   89.6260   64.2560   14.7630 C   0  0  0  0  0  0  0  0  0  0  0  0
   89.2220   65.5320   14.5410 O   0  0  0  0  0  0  0  0  0  0  0  0
   87.1020   64.5880   13.9610 C   0  0  3  0  0  0  0  0  0  0  0  0
   87.7240   63.3590   13.6190 C   0  0  0  0  0  0  0  0  0  0  0  0
   85.8210   64.6650   14.2910 O   0  0  0  0  0  0  0  0  0  0  0  0
   90.0510   63.8850   15.8520 O   0  0  0  0  0  0  0  0  0  0  0  0
   89.0990   63.2840   13.8160 C   0  0  0  0  0  0  0  0  0  0  0  0
   87.4540   67.0120   13.5550 C   0  0  0  0  0  0  0  0  0  0  0  0
   87.9400   65.7240   14.0930 C   0  0  3  0  0  0  0  0  0  0  0  0
  1  2  1  0  0  0  0
  1  6  2  0  0  0  0
  1  7  1  0  0  0  0
  2  9  1  0  0  0  0
  3  4  1  0  0  0  0
  3  5  1  0  0  0  0
  3  9  1  0  0  0  0
  4  7  1  0  0  0  0
  8  9  1  0  0  0  0
M  END
>  <Original_Directory>
5fyz_A_rec_5fyv_oaa_lig_tt_min_0_pocket10

>  <Original_Filename>
5fyz_A_rec_5fyv_oaa_lig_tt_min_0_pocket10_gen_sample_11.sdf

>  <Molecule_ID>
sample_11

>  <logS>
-0.35591

$$$$