/tmp/tmptzg57a0v
  MOE2022           3D

 30 32  0  0  1  0  0  0  0  0999 V2000
   14.7850    5.4240   -0.9350 C   0  0  3  0  0  0  0  0  0  0  0  0
   13.0490    3.1350    0.1760 C   0  0  0  0  0  0  0  0  0  0  0  0
   17.8120    6.2100    0.5390 O   0  0  0  0  0  0  0  0  0  0  0  0
   14.8200    9.9770    2.4250 C   0  0  0  0  0  0  0  0  0  0  0  0
   11.0330    2.0210   -5.1240 C   0  0  0  0  0  0  0  0  0  0  0  0
   14.3080   11.2300    2.3040 N   0  0  0  0  0  0  0  0  0  0  0  0
   15.4260    9.8260    5.9920 O   0  0  0  0  0  0  0  0  0  0  0  0
   13.6550   10.5630    4.9640 O   0  0  0  0  0  0  0  0  0  0  0  0
   13.7460    7.5620   -0.8140 O   0  0  0  0  0  0  0  0  0  0  0  0
   15.3210    9.5040    3.6470 C   0  0  0  0  0  0  0  0  0  0  0  0
   16.6600    6.0950    0.1960 C   0  0  0  0  0  0  0  0  0  0  0  0
   13.6990    4.7790   -1.6140 C   0  0  0  0  0  0  0  0  0  0  0  0
   12.5960    4.5940   -3.7350 C   0  0  0  0  0  0  0  0  0  0  0  0
   16.4630    7.7810    2.4870 N   0  0  0  0  0  0  0  0  0  0  0  0
   12.9070    2.6450   -2.3470 C   0  0  0  0  0  0  0  0  0  0  0  0
   16.1300    4.9430   -0.6040 C   0  0  0  0  0  0  0  0  0  0  0  0
   12.7980    1.3070   -2.1900 N   0  0  0  0  0  0  0  0  0  0  0  0
   10.5630    0.9870   -4.6800 O   0  0  0  0  0  0  0  0  0  0  0  0
   11.9820    2.2330    0.3720 O   0  0  0  0  0  0  0  0  0  0  0  0
   13.0490    5.3920   -2.6950 C   0  0  0  0  0  0  0  0  0  0  0  0
   12.4920    2.3420   -4.8460 C   0  0  0  0  0  0  0  0  0  0  0  0
   14.6190    6.7620   -0.4660 C   0  0  0  0  0  0  0  0  0  0  0  0
   16.2320    8.4570    3.6180 C   0  0  0  0  0  0  0  0  0  0  0  0
   14.7240    9.9440    4.9530 C   0  0  0  0  0  0  0  0  0  0  0  0
   15.6380    7.9680    1.4440 C   0  0  0  0  0  0  0  0  0  0  0  0
   13.2440    3.4890   -1.2820 C   0  0  0  0  0  0  0  0  0  0  0  0
   10.3650    2.8870   -5.8940 N   0  0  0  0  0  0  0  0  0  0  0  0
   15.6590    7.0220    0.4070 N   0  0  0  0  0  0  0  0  0  0  0  0
   12.6430    3.2120   -3.6130 C   0  0  0  0  0  0  0  0  0  0  0  0
   14.8900    9.1330    1.3120 C   0  0  0  0  0  0  0  0  0  0  0  0
  1 12  1  0  0  0  0
  1 16  1  0  0  0  0
  1 22  1  0  0  0  0
  2 19  1  0  0  0  0
  2 26  1  0  0  0  0
  3 11  2  0  0  0  0
  4  6  1  0  0  0  0
  4 10  1  0  0  0  0
  4 30  2  0  0  0  0
  5 18  2  0  0  0  0
  5 21  1  0  0  0  0
  5 27  1  0  0  0  0
  7 24  1  0  0  0  0
  8 24  2  0  0  0  0
  9 22  2  0  0  0  0
 10 23  2  0  0  0  0
 10 24  1  0  0  0  0
 11 16  1  0  0  0  0
 11 28  1  0  0  0  0
 12 20  2  0  0  0  0
 12 26  1  0  0  0  0
 13 20  1  0  0  0  0
 13 29  2  0  0  0  0
 14 23  1  0  0  0  0
 14 25  2  0  0  0  0
 15 17  1  0  0  0  0
 15 26  2  0  0  0  0
 15 29  1  0  0  0  0
 21 29  1  0  0  0  0
 22 28  1  0  0  0  0
 25 28  1  0  0  0  0
 25 30  1  0  0  0  0
M  END
>  <Original_Directory>
3dhf_A_rec_4l4m_1xd_lig_tt_min_0_pocket10

>  <Original_Filename>
3dhf_A_rec_4l4m_1xd_lig_tt_min_0_pocket10_gen_sample_9.sdf

>  <Molecule_ID>
sample_9

>  <logS>
-2.15187

$$$$