/tmp/tmp2a__n0aa
  MOE2022           3D

 31 35  0  0  0  0  0  0  0  0999 V2000
   17.7000   27.5210   17.5440 C   0  0  0  0  0  0  0  0  0  0  0  0
   19.3460   28.4250   16.0610 C   0  0  0  0  0  0  0  0  0  0  0  0
   24.6290   39.4080   14.7250 C   0  0  0  0  0  0  0  0  0  0  0  0
   20.4500   31.9410   15.7490 C   0  0  0  0  0  0  0  0  0  0  0  0
   17.6570   36.8340   15.9710 O   0  0  0  0  0  0  0  0  0  0  0  0
   19.9310   37.5520   15.8550 C   0  0  0  0  0  0  0  0  0  0  0  0
   18.7460   33.3730   16.6760 C   0  0  0  0  0  0  0  0  0  0  0  0
   24.4020   39.4130   16.0940 C   0  0  0  0  0  0  0  0  0  0  0  0
   23.5170   40.6360   18.3770 O   0  0  0  0  0  0  0  0  0  0  0  0
   17.8740   32.3030   16.7520 C   0  0  0  0  0  0  0  0  0  0  0  0
   18.3450   31.0160   16.4450 N   0  0  0  0  0  0  0  0  0  0  0  0
   21.2230   37.4970   16.3720 C   0  0  0  0  0  0  0  0  0  0  0  0
   20.1700   29.5340   15.7850 C   0  0  0  0  0  0  0  0  0  0  0  0
   18.7740   26.1670   15.9310 C   0  0  0  0  0  0  0  0  0  0  0  0
   23.1170   39.1230   16.5450 C   0  0  0  0  0  0  0  0  0  0  0  0
   21.4610   36.6640   17.4590 C   0  0  0  0  0  0  0  0  0  0  0  0
   19.9850   33.2060   16.0630 C   0  0  0  0  0  0  0  0  0  0  0  0
   22.5210   38.3170   14.3820 C   0  0  0  0  0  0  0  0  0  0  0  0
   22.5470   39.8370   17.7200 C   0  0  0  0  0  0  0  0  0  0  0  0
   18.9640   36.6550   16.2930 C   0  0  0  0  0  0  0  0  0  0  0  0
   19.3110   35.6230   17.1690 C   0  0  0  0  0  0  0  0  0  0  0  0
   16.3710   29.9770   16.7420 O   0  0  0  0  0  0  0  0  0  0  0  0
   19.6840   30.8140   16.0360 C   0  0  0  0  0  0  0  0  0  0  0  0
   19.5030   27.2110   15.4600 N   0  0  0  0  0  0  0  0  0  0  0  0
   18.2140   28.6320   16.8810 C   0  0  0  0  0  0  0  0  0  0  0  0
   17.5680   29.8930   16.7330 C   0  0  0  0  0  0  0  0  0  0  0  0
   18.4550   34.5540   17.3080 O   0  0  0  0  0  0  0  0  0  0  0  0
   22.3170   38.2780   15.7560 C   0  0  0  0  0  0  0  0  0  0  0  0
   18.0770   26.2530   17.1280 C   0  0  0  0  0  0  0  0  0  0  0  0
   23.7110   38.8140   13.8770 C   0  0  0  0  0  0  0  0  0  0  0  0
   20.5220   35.7160   17.8370 C   0  0  0  0  0  0  0  0  0  0  0  0
  1 25  2  0  0  0  0
  1 29  1  0  0  0  0
  2 13  1  0  0  0  0
  2 24  2  0  0  0  0
  2 25  1  0  0  0  0
  3  8  1  0  0  0  0
  3 30  2  0  0  0  0
  4 17  1  0  0  0  0
  4 23  2  0  0  0  0
  5 20  1  0  0  0  0
  6 12  2  0  0  0  0
  6 20  1  0  0  0  0
  7 10  1  0  0  0  0
  7 17  2  0  0  0  0
  7 27  1  0  0  0  0
  8 15  2  0  0  0  0
  9 19  1  0  0  0  0
 10 11  1  0  0  0  0
 11 23  1  0  0  0  0
 11 26  1  0  0  0  0
 12 16  1  0  0  0  0
 12 28  1  0  0  0  0
 13 23  1  0  0  0  0
 14 24  1  0  0  0  0
 14 29  2  0  0  0  0
 15 19  1  0  0  0  0
 15 28  1  0  0  0  0
 16 31  2  0  0  0  0
 18 28  2  0  0  0  0
 18 30  1  0  0  0  0
 20 21  2  0  0  0  0
 21 27  1  0  0  0  0
 21 31  1  0  0  0  0
 22 26  2  0  0  0  0
 25 26  1  0  0  0  0
M  END
>  <Original_Directory>
1nga_A_rec_1ngg_atp_lig_tt_docked_0_pocket10

>  <Original_Filename>
1nga_A_rec_1ngg_atp_lig_tt_docked_0_pocket10_gen_sample_18.sdf

>  <Molecule_ID>
sample_18

>  <logS>
-5.3838902

$$$$