/tmp/tmpwf4bxcw3
  MOE2022           3D

 31 37  0  0  1  0  0  0  0  0999 V2000
   22.9400   37.5050   17.7210 C   0  0  0  0  0  0  0  0  0  0  0  0
   21.0760   36.2110   16.4870 N   0  0  0  0  0  0  0  0  0  0  0  0
   19.9170   35.1130   14.4700 C   0  0  0  0  0  0  0  0  0  0  0  0
   22.7180   39.2500   15.4440 C   0  0  3  0  0  0  0  0  0  0  0  0
   17.2650   29.5180   17.1570 C   0  0  0  0  0  0  0  0  0  0  0  0
   19.2970   34.8150   17.3540 N   0  0  0  0  0  0  0  0  0  0  0  0
   24.2080   38.9790   15.2580 C   0  0  0  0  0  0  0  0  0  0  0  0
   20.7000   36.1450   15.1740 C   0  0  0  0  0  0  0  0  0  0  0  0
   17.4230   28.1650   17.4360 C   0  0  0  0  0  0  0  0  0  0  0  0
   18.5860   31.4330   16.0710 C   0  0  0  0  0  0  0  0  0  0  0  0
   18.9500   27.9260   15.5510 C   0  0  0  0  0  0  0  0  0  0  0  0
   19.5770   33.8360   15.1320 C   0  0  0  0  0  0  0  0  0  0  0  0
   18.5530   32.5460   16.8960 C   0  0  0  0  0  0  0  0  0  0  0  0
   20.6340   35.3500   17.5710 C   0  0  0  0  0  0  0  0  0  0  0  0
   19.6190   30.0760   14.3990 C   0  0  0  0  0  0  0  0  0  0  0  0
   21.2270   37.2420   14.5080 C   0  0  0  0  0  0  0  0  0  0  0  0
   24.7720   38.7730   16.6540 C   0  0  0  0  0  0  0  0  0  0  0  0
   18.4860   35.7570   19.2730 O   0  0  0  0  0  0  0  0  0  0  0  0
   21.9170   37.2730   16.6510 C   0  0  0  0  0  0  0  0  0  0  0  0
   17.1400   35.4850   17.5420 O   0  0  0  0  0  0  0  0  0  0  0  0
   21.9360   37.9710   15.4560 C   0  0  0  0  0  0  0  0  0  0  0  0
   19.2040   26.6050   17.4840 O   0  0  0  0  0  0  0  0  0  0  0  0
   18.2530   35.3690   18.0900 C   0  0  0  0  0  0  0  0  0  0  0  0
   19.1240   33.7370   16.4480 C   0  0  0  0  0  0  0  0  0  0  0  0
   18.6930   29.2560   15.2430 C   0  0  0  0  0  0  0  0  0  0  0  0
   22.6260   39.8230   16.8820 C   0  0  0  0  0  0  0  0  0  0  0  0
   18.3990   27.4470   16.7430 C   0  0  0  0  0  0  0  0  0  0  0  0
   19.3690   31.4620   14.8960 C   0  0  0  0  0  0  0  0  0  0  0  0
   19.7320   32.6810   14.3660 C   0  0  0  0  0  0  0  0  0  0  0  0
   23.5900   38.8870   17.6130 C   0  0  3  0  0  0  0  0  0  0  0  0
   18.2000   30.0800   16.2950 C   0  0  0  0  0  0  0  0  0  0  0  0
  1 19  1  0  0  0  0
  1 30  1  0  0  0  0
  2  8  1  0  0  0  0
  2 14  1  0  0  0  0
  2 19  1  0  0  0  0
  3  8  1  0  0  0  0
  3 12  1  0  0  0  0
  4  7  1  0  0  0  0
  4 21  1  0  0  0  0
  4 26  1  0  0  0  0
  5  9  1  0  0  0  0
  5 31  2  0  0  0  0
  6 14  1  0  0  0  0
  6 23  1  0  0  0  0
  6 24  1  0  0  0  0
  7 17  1  0  0  0  0
  8 16  2  0  0  0  0
  9 27  2  0  0  0  0
 10 13  2  0  0  0  0
 10 28  1  0  0  0  0
 10 31  1  0  0  0  0
 11 25  2  0  0  0  0
 11 27  1  0  0  0  0
 12 24  2  0  0  0  0
 12 29  1  0  0  0  0
 13 24  1  0  0  0  0
 15 25  1  0  0  0  0
 15 28  1  0  0  0  0
 16 21  1  0  0  0  0
 17 30  1  0  0  0  0
 18 23  1  0  0  0  0
 19 21  2  0  0  0  0
 20 23  2  0  0  0  0
 22 27  1  0  0  0  0
 25 31  1  0  0  0  0
 26 30  1  0  0  0  0
 28 29  2  0  0  0  0
M  END
>  <Original_Directory>
1nga_A_rec_1ngg_atp_lig_tt_docked_0_pocket10

>  <Original_Filename>
1nga_A_rec_1ngg_atp_lig_tt_docked_0_pocket10_gen_sample_16.sdf

>  <Molecule_ID>
sample_16

>  <logS>
-5.8454099

$$$$