/tmp/tmp98h8eybc
  MOE2022           3D

 21 21  0  0  0  0  0  0  0  0999 V2000
  -12.7360   -4.7380    5.8400 C   0  0  0  0  0  0  0  0  0  0  0  0
  -18.1520    0.5260    6.9200 P   0  0  0  0  0  0  0  0  0  0  0  0
  -13.7560   -3.2610    7.6190 C   0  0  0  0  0  0  0  0  0  0  0  0
  -18.8710    0.7130    5.5940 O   0  0  0  0  0  0  0  0  0  0  0  0
  -10.7200   -2.1960    4.8150 O   0  0  0  0  0  0  0  0  0  0  0  0
  -17.9690   -1.0310    7.1980 O   0  0  0  0  0  0  0  0  0  0  0  0
   -6.7600   -2.1030    6.6000 C   0  0  0  0  0  0  0  0  0  0  0  0
  -18.9370    1.2410    7.9620 O   0  0  0  0  0  0  0  0  0  0  0  0
   -7.4620   -2.3780    7.7560 C   0  0  0  0  0  0  0  0  0  0  0  0
  -16.1960   -2.6340    7.4290 C   0  0  0  0  0  0  0  0  0  0  0  0
   -7.3450   -1.6800    5.4640 C   0  0  0  0  0  0  0  0  0  0  0  0
  -16.7490    1.1320    6.8630 O   0  0  0  0  0  0  0  0  0  0  0  0
  -10.4060   -4.3470    6.7940 C   0  0  0  0  0  0  0  0  0  0  0  0
   -8.5940   -1.5510    5.0640 N   0  0  0  0  0  0  0  0  0  0  0  0
   -9.5720   -3.0990    6.6510 C   0  0  0  0  0  0  0  0  0  0  0  0
  -15.1030   -3.2040    8.3150 C   0  0  0  0  0  0  0  0  0  0  0  0
   -8.7670   -2.8070    7.7040 C   0  0  0  0  0  0  0  0  0  0  0  0
   -9.6830   -2.2510    5.4760 C   0  0  0  0  0  0  0  0  0  0  0  0
  -13.2680   -4.6460    7.2580 C   0  0  0  0  0  0  0  0  0  0  0  0
  -16.9090   -1.4480    8.0640 C   0  0  0  0  0  0  0  0  0  0  0  0
  -11.2960   -4.6260    5.7100 N   0  0  0  0  0  0  0  0  0  0  0  0
  1 19  1  0  0  0  0
  1 21  2  0  0  0  0
  2  4  2  0  0  0  0
  2  6  1  0  0  0  0
  2  8  1  0  0  0  0
  2 12  1  0  0  0  0
  3 16  1  0  0  0  0
  3 19  1  0  0  0  0
  5 18  2  0  0  0  0
  6 20  1  0  0  0  0
  7  9  1  0  0  0  0
  7 11  2  0  0  0  0
  9 17  2  0  0  0  0
 10 16  1  0  0  0  0
 10 20  1  0  0  0  0
 11 14  1  0  0  0  0
 13 15  2  0  0  0  0
 13 21  1  0  0  0  0
 14 18  1  0  0  0  0
 15 17  1  0  0  0  0
 15 18  1  0  0  0  0
M  END
>  <Original_Directory>
1uk0_A_rec_4r5w_xav_lig_tt_min_0_pocket10

>  <Original_Filename>
1uk0_A_rec_4r5w_xav_lig_tt_min_0_pocket10_gen_sample_15.sdf

>  <Molecule_ID>
sample_15

>  <logS>
-1.1720901

$$$$