/tmp/tmpro8v9wme
  MOE2022           3D

 18 20  0  0  1  0  0  0  0  0999 V2000
  -10.1270   -1.1680    5.8560 C   0  0  0  0  0  0  0  0  0  0  0  0
   -9.4940   -4.4800    7.4820 C   0  0  3  0  0  0  0  0  0  0  0  0
  -10.1750   -2.7050    5.9330 C   0  0  3  0  0  0  0  0  0  0  0  0
   -5.2970   -3.8340    8.3990 O   0  0  0  0  0  0  0  0  0  0  0  0
  -11.3810   -4.1180    9.0750 C   0  0  0  0  0  0  0  0  0  0  0  0
   -7.2320   -2.7270    8.2240 N   0  0  0  0  0  0  0  0  0  0  0  0
   -6.5130   -3.8500    8.4370 C   0  0  0  0  0  0  0  0  0  0  0  0
   -7.9190   -2.6450    6.9350 C   0  0  3  0  0  0  0  0  0  0  0  0
   -7.5440   -1.8420    9.3270 C   0  0  0  0  0  0  0  0  0  0  0  0
   -8.7390   -0.7690    5.4060 C   0  0  0  0  0  0  0  0  0  0  0  0
  -11.6890   -4.4270    6.6080 C   0  0  0  0  0  0  0  0  0  0  0  0
  -10.9100   -4.7130    7.8060 N   0  0  0  0  0  0  0  0  0  0  0  0
   -8.7690   -4.8240    8.6930 N   0  0  0  0  0  0  0  0  0  0  0  0
   -6.3810   -1.4710   10.0170 O   0  0  0  0  0  0  0  0  0  0  0  0
   -9.3740   -2.9750    7.2050 C   0  0  3  0  0  0  0  0  0  0  0  0
   -7.6650   -1.3010    6.3010 C   0  0  0  0  0  0  0  0  0  0  0  0
   -7.3480   -5.0880    8.6610 C   0  0  0  0  0  0  0  0  0  0  0  0
  -11.5640   -2.9910    6.3260 N   0  0  0  0  0  0  0  0  0  0  0  0
  1  3  1  0  0  0  0
  1 10  1  0  0  0  0
  2 12  1  0  0  0  0
  2 13  1  0  0  0  0
  2 15  1  0  0  0  0
  3 15  1  0  0  0  0
  3 18  1  0  0  0  0
  4  7  2  0  0  0  0
  5 12  1  0  0  0  0
  6  7  1  0  0  0  0
  6  8  1  0  0  0  0
  6  9  1  0  0  0  0
  7 17  1  0  0  0  0
  8 15  1  0  0  0  0
  8 16  1  0  0  0  0
  9 14  1  0  0  0  0
 10 16  1  0  0  0  0
 11 12  1  0  0  0  0
 11 18  1  0  0  0  0
 13 17  1  0  0  0  0
M  END
>  <Original_Directory>
2rcw_A_rec_3gn7_3gn_lig_tt_min_0_pocket10

>  <Original_Filename>
2rcw_A_rec_3gn7_3gn_lig_tt_min_0_pocket10_gen_sample_3.sdf

>  <Molecule_ID>
sample_3

>  <logS>
0.69375998

$$$$