/tmp/tmpws7co4th
  MOE2022           3D

 32 37  0  0  1  0  0  0  0  0999 V2000
   18.3920   32.7510  -14.1440 C   0  0  0  0  0  0  0  0  0  0  0  0
   14.3400   21.9360  -15.5550 C   0  0  0  0  0  0  0  0  0  0  0  0
   16.8660   25.7360  -16.3300 C   0  0  0  0  0  0  0  0  0  0  0  0
   17.7020   32.1370  -12.9400 C   0  0  1  0  0  0  0  0  0  0  0  0
   17.4500   26.4750  -19.3860 C   0  0  0  0  0  0  0  0  0  0  0  0
   12.2400   23.1890  -15.0580 C   0  0  0  0  0  0  0  0  0  0  0  0
   14.4900   25.7400  -13.5310 C   0  0  3  0  0  0  0  0  0  0  0  0
   16.2820   26.2650  -18.6960 C   0  0  0  0  0  0  0  0  0  0  0  0
   15.8610   26.1930  -14.0010 C   0  0  3  0  0  0  0  0  0  0  0  0
   15.2740   32.2280  -13.3000 C   0  0  0  0  0  0  0  0  0  0  0  0
   17.2280   30.7180  -13.2910 C   0  0  0  0  0  0  0  0  0  0  0  0
   12.5660   28.6540  -14.8280 C   0  0  0  0  0  0  0  0  0  0  0  0
   18.2210   25.9410  -16.4260 C   0  0  0  0  0  0  0  0  0  0  0  0
   12.7440   24.4840  -14.9170 C   0  0  0  0  0  0  0  0  0  0  0  0
   14.9910   29.9400  -14.4880 C   0  0  0  0  0  0  0  0  0  0  0  0
   14.1000   30.4310  -15.4730 C   0  0  0  0  0  0  0  0  0  0  0  0
   14.0570   24.7430  -14.5790 C   0  0  0  0  0  0  0  0  0  0  0  0
   16.1570   27.6780  -14.0800 C   0  0  0  0  0  0  0  0  0  0  0  0
   12.8420   29.8050  -15.5870 C   0  0  0  0  0  0  0  0  0  0  0  0
   14.9030   28.5390  -14.2510 C   0  0  0  0  0  0  0  0  0  0  0  0
   13.0330   22.0630  -15.1510 C   0  0  0  0  0  0  0  0  0  0  0  0
   15.9940   25.9990  -17.3770 C   0  0  0  0  0  0  0  0  0  0  0  0
   16.3560   25.1690  -15.0160 C   0  0  3  0  0  0  0  0  0  0  0  0
   15.7190   30.8050  -13.4980 C   0  0  3  0  0  0  0  0  0  0  0  0
   15.3260   22.9090  -15.6540 C   0  0  0  0  0  0  0  0  0  0  0  0
   13.3970   26.7820  -13.2960 C   0  0  0  0  0  0  0  0  0  0  0  0
   15.2050   24.2050  -15.1710 C   0  0  0  0  0  0  0  0  0  0  0  0
   18.5920   32.2130  -11.8280 O   0  0  0  0  0  0  0  0  0  0  0  0
   18.7090   26.5390  -18.8210 C   0  0  0  0  0  0  0  0  0  0  0  0
   18.9740   26.4320  -17.4700 C   0  0  0  0  0  0  0  0  0  0  0  0
   13.6140   28.0180  -14.1380 C   0  0  0  0  0  0  0  0  0  0  0  0
   16.4360   32.9270  -12.5930 C   0  0  0  0  0  0  0  0  0  0  0  0
  1  4  1  0  0  0  0
  2 21  1  0  0  0  0
  2 25  2  0  0  0  0
  3 13  1  0  0  0  0
  3 22  2  0  0  0  0
  3 23  1  0  0  0  0
  4 11  1  0  0  0  0
  4 28  1  0  0  0  0
  4 32  1  0  0  0  0
  5  8  2  0  0  0  0
  5 29  1  0  0  0  0
  6 14  2  0  0  0  0
  6 21  1  0  0  0  0
  7  9  1  0  0  0  0
  7 17  1  0  0  0  0
  7 26  1  0  0  0  0
  8 22  1  0  0  0  0
  9 18  1  0  0  0  0
  9 23  1  0  0  0  0
 10 24  1  0  0  0  0
 10 32  1  0  0  0  0
 11 24  1  0  0  0  0
 12 19  1  0  0  0  0
 12 31  2  0  0  0  0
 13 30  1  0  0  0  0
 14 17  1  0  0  0  0
 15 16  1  0  0  0  0
 15 20  2  0  0  0  0
 15 24  1  0  0  0  0
 16 19  2  0  0  0  0
 17 27  2  0  0  0  0
 18 20  1  0  0  0  0
 20 31  1  0  0  0  0
 23 27  1  0  0  0  0
 25 27  1  0  0  0  0
 26 31  1  0  0  0  0
 29 30  2  0  0  0  0
M  END
>  <Original_Directory>
5dkg_A_rec_4znh_obc_lig_tt_min_0_pocket10

>  <Original_Filename>
5dkg_A_rec_4znh_obc_lig_tt_min_0_pocket10_gen_sample_15.sdf

>  <Molecule_ID>
sample_15

>  <logS>
-7.4496799

$$$$