/tmp/tmpd_gh3a32
  MOE2022           3D

 20 23  0  0  1  0  0  0  0  0999 V2000
    8.2030   55.4960    2.1420 C   0  0  0  0  0  0  0  0  0  0  0  0
    5.5360   60.1160    0.0400 N   0  0  0  0  0  0  0  0  0  0  0  0
    8.3760   55.1410    0.6670 C   0  0  1  0  0  0  0  0  0  0  0  0
    7.3470   57.0970   -0.6220 C   0  0  3  0  0  0  0  0  0  0  0  0
    3.7490   58.6370    1.0730 C   0  0  0  0  0  0  0  0  0  0  0  0
    7.2300   55.6580   -0.2150 C   0  0  3  0  0  0  0  0  0  0  0  0
   10.6620   54.5390    0.0770 C   0  0  0  0  0  0  0  0  0  0  0  0
    9.7180   55.7190    0.2100 C   0  0  0  0  0  0  0  0  0  0  0  0
    6.1830   57.7780   -0.2080 C   0  0  0  0  0  0  0  0  0  0  0  0
    7.4590   59.2880   -1.2410 N   0  0  0  0  0  0  0  0  0  0  0  0
   10.3200   52.2180    0.1580 F   0  0  0  0  0  0  0  0  0  0  0  0
    5.3160   56.9650    0.4800 C   0  0  0  0  0  0  0  0  0  0  0  0
    6.3460   59.1420   -0.4620 C   0  0  0  0  0  0  0  0  0  0  0  0
    4.4570   59.7880    0.7850 C   0  0  0  0  0  0  0  0  0  0  0  0
    9.1520   57.8760   -1.9740 O   0  0  0  0  0  0  0  0  0  0  0  0
    9.7550   53.4000   -0.3380 C   0  0  3  0  0  0  0  0  0  0  0  0
    8.4800   53.6380    0.4670 C   0  0  0  0  0  0  0  0  0  0  0  0
    8.1310   58.0970   -1.3160 C   0  0  0  0  0  0  0  0  0  0  0  0
    5.8890   55.5680    0.5400 C   0  0  0  0  0  0  0  0  0  0  0  0
    4.1580   57.3350    1.1660 O   0  0  0  0  0  0  0  0  0  0  0  0
  1  3  1  0  0  0  0
  2 13  2  0  0  0  0
  2 14  1  0  0  0  0
  3  6  1  0  0  0  0
  3  8  1  0  0  0  0
  3 17  1  0  0  0  0
  4  6  1  0  0  0  0
  4  9  1  0  0  0  0
  4 18  1  0  0  0  0
  5 14  1  0  0  0  0
  5 20  1  0  0  0  0
  6 19  1  0  0  0  0
  7  8  1  0  0  0  0
  7 16  1  0  0  0  0
  9 12  2  0  0  0  0
  9 13  1  0  0  0  0
 10 13  1  0  0  0  0
 10 18  1  0  0  0  0
 11 16  1  0  0  0  0
 12 19  1  0  0  0  0
 12 20  1  0  0  0  0
 15 18  2  0  0  0  0
 16 17  1  0  0  0  0
M  END
>  <Original_Directory>
3eyg_A_rec_4ei4_0q2_lig_tt_min_0_pocket10

>  <Original_Filename>
3eyg_A_rec_4ei4_0q2_lig_tt_min_0_pocket10_gen_sample_4.sdf

>  <Molecule_ID>
sample_4

>  <logS>
-2.67765

$$$$