/tmp/tmppvfwo1tu
  MOE2022           3D

 20 22  0  0  1  0  0  0  0  0999 V2000
   19.1040  -36.7120    9.0940 O   0  0  0  0  0  0  0  0  0  0  0  0
   15.7710  -37.3470    8.5640 C   0  0  0  0  0  0  0  0  0  0  0  0
   21.2600  -33.7210    6.2840 C   0  0  0  0  0  0  0  0  0  0  0  0
   18.1730  -33.6590    5.7270 N   0  0  0  0  0  0  0  0  0  0  0  0
   21.1720  -32.8900    5.1760 C   0  0  0  0  0  0  0  0  0  0  0  0
   15.0050  -36.0440    8.7660 C   0  0  2  0  0  0  0  0  0  0  0  0
   18.7580  -33.1270    4.6550 C   0  0  0  0  0  0  0  0  0  0  0  0
   19.2870  -35.8030    8.2910 C   0  0  0  0  0  0  0  0  0  0  0  0
   18.8590  -34.1250    6.7830 C   0  0  0  0  0  0  0  0  0  0  0  0
   20.2240  -34.5720    6.6930 C   0  0  3  0  0  0  0  0  0  0  0  0
   13.4750  -36.2150   10.6600 C   0  0  0  0  0  0  0  0  0  0  0  0
   14.6500  -35.3540   11.0960 C   0  0  0  0  0  0  0  0  0  0  0  0
   15.5490  -35.1970    9.8930 C   0  0  3  0  0  0  0  0  0  0  0  0
   16.7160  -34.4490    9.9490 C   0  0  0  0  0  0  0  0  0  0  0  0
   20.0180  -32.6450    4.4600 C   0  0  0  0  0  0  0  0  0  0  0  0
   13.5480  -36.3170    9.1490 C   0  0  0  0  0  0  0  0  0  0  0  0
   15.0650  -35.3100    7.5460 O   0  0  0  0  0  0  0  0  0  0  0  0
   18.4470  -34.5830    8.0710 C   0  0  3  0  0  0  0  0  0  0  0  0
   20.3150  -35.7170    7.4020 N   0  0  0  0  0  0  0  0  0  0  0  0
   17.5880  -33.9130    9.0140 C   0  0  0  0  0  0  0  0  0  0  0  0
  1  8  2  0  0  0  0
  2  6  1  0  0  0  0
  3  5  2  0  0  0  0
  3 10  1  0  0  0  0
  4  7  1  0  0  0  0
  4  9  2  0  0  0  0
  5 15  1  0  0  0  0
  6 13  1  0  0  0  0
  6 16  1  0  0  0  0
  6 17  1  0  0  0  0
  7 15  2  0  0  0  0
  8 18  1  0  0  0  0
  8 19  1  0  0  0  0
  9 10  1  0  0  0  0
  9 18  1  0  0  0  0
 10 19  1  0  0  0  0
 11 12  1  0  0  0  0
 11 16  1  0  0  0  0
 12 13  1  0  0  0  0
 13 14  1  0  0  0  0
 14 20  1  0  0  0  0
 18 20  1  0  0  0  0
M  END
>  <Original_Directory>
1m79_B_rec_1aoe_gw3_lig_tt_docked_1_pocket10

>  <Original_Filename>
1m79_B_rec_1aoe_gw3_lig_tt_docked_1_pocket10_gen_sample_17.sdf

>  <Molecule_ID>
sample_17

>  <logS>
-2.38047

$$$$