/tmp/tmpgme3126a
  MOE2022           3D

 20 23  0  0  1  0  0  0  0  0999 V2000
   18.0040  -35.1270    9.5650 N   0  0  0  0  0  0  0  0  0  0  0  0
   19.1150  -35.4900    8.8600 C   0  0  0  0  0  0  0  0  0  0  0  0
   17.1420  -34.2430    8.9760 C   0  0  3  0  0  0  0  0  0  0  0  0
   20.4390  -34.0120    4.7230 C   0  0  0  0  0  0  0  0  0  0  0  0
   17.5860  -33.3110    8.1350 N   0  0  0  0  0  0  0  0  0  0  0  0
   20.0720  -35.5260    6.6410 C   0  0  0  0  0  0  0  0  0  0  0  0
   19.2640  -34.9080    7.5670 C   0  0  0  0  0  0  0  0  0  0  0  0
   18.5540  -33.7370    7.2790 C   0  0  0  0  0  0  0  0  0  0  0  0
   13.7380  -36.2230   10.0220 C   0  0  0  0  0  0  0  0  0  0  0  0
   16.0080  -35.5360   10.2990 C   0  0  0  0  0  0  0  0  0  0  0  0
   12.5240  -36.9800   10.5150 C   0  0  0  0  0  0  0  0  0  0  0  0
   17.3180  -35.8720   10.4630 N   0  0  0  0  0  0  0  0  0  0  0  0
   13.7410  -35.6670    8.7370 C   0  0  0  0  0  0  0  0  0  0  0  0
   19.4220  -33.1230    4.9700 C   0  0  0  0  0  0  0  0  0  0  0  0
   14.8860  -36.1710   10.8120 C   0  0  0  0  0  0  0  0  0  0  0  0
   18.7260  -32.9980    6.1290 C   0  0  0  0  0  0  0  0  0  0  0  0
   14.8330  -34.9170    8.3060 C   0  0  0  0  0  0  0  0  0  0  0  0
   19.9340  -36.2660    9.3460 O   0  0  0  0  0  0  0  0  0  0  0  0
   20.8240  -34.9570    5.6440 C   0  0  0  0  0  0  0  0  0  0  0  0
   15.9020  -34.7480    9.1600 C   0  0  0  0  0  0  0  0  0  0  0  0
  1  2  1  0  0  0  0
  1  3  1  0  0  0  0
  1 12  1  0  0  0  0
  2  7  1  0  0  0  0
  2 18  2  0  0  0  0
  3  5  1  0  0  0  0
  3 20  1  0  0  0  0
  4 14  2  0  0  0  0
  4 19  1  0  0  0  0
  5  8  1  0  0  0  0
  6  7  2  0  0  0  0
  6 19  1  0  0  0  0
  7  8  1  0  0  0  0
  8 16  2  0  0  0  0
  9 11  1  0  0  0  0
  9 13  1  0  0  0  0
  9 15  2  0  0  0  0
 10 12  1  0  0  0  0
 10 15  1  0  0  0  0
 10 20  2  0  0  0  0
 13 17  2  0  0  0  0
 14 16  1  0  0  0  0
 17 20  1  0  0  0  0
M  END
>  <Original_Directory>
1m79_B_rec_1aoe_gw3_lig_tt_docked_1_pocket10

>  <Original_Filename>
1m79_B_rec_1aoe_gw3_lig_tt_docked_1_pocket10_gen_sample_7.sdf

>  <Molecule_ID>
sample_7

>  <logS>
-3.50791

$$$$