/tmp/tmp8zmbe1dh
  MOE2022           3D

 15 15  0  0  1  0  0  0  0  0999 V2000
  -25.3530   -1.2980  -16.6050 O   0  0  0  0  0  0  0  0  0  0  0  0
  -27.2620   -3.2250  -16.8650 O   0  0  0  0  0  0  0  0  0  0  0  0
  -29.3420   -1.2780  -14.5220 C   0  0  3  0  0  0  0  0  0  0  0  0
  -25.9550    1.1950  -15.9420 O   0  0  0  0  0  0  0  0  0  0  0  0
  -26.6230   -1.0630  -16.1330 C   0  0  0  0  0  0  0  0  0  0  0  0
  -29.2910    0.2320  -14.6320 C   0  0  0  0  0  0  0  0  0  0  0  0
  -28.2190    0.7700  -15.5720 C   0  0  3  0  0  0  0  0  0  0  0  0
  -27.4700   -2.1680  -16.0000 C   0  0  0  0  0  0  0  0  0  0  0  0
  -26.9760    0.2790  -15.9010 C   0  0  0  0  0  0  0  0  0  0  0  0
  -28.4140    2.1400  -15.7410 O   0  0  0  0  0  0  0  0  0  0  0  0
  -30.1930   -1.7260  -13.5380 O   0  0  0  0  0  0  0  0  0  0  0  0
  -28.7120   -2.2230  -15.3350 C   0  0  0  0  0  0  0  0  0  0  0  0
  -29.4200   -3.3780  -15.5470 O   0  0  0  0  0  0  0  0  0  0  0  0
  -29.0110    0.7380  -13.3480 O   0  0  0  0  0  0  0  0  0  0  0  0
  -30.5820    0.6970  -14.9230 O   0  0  0  0  0  0  0  0  0  0  0  0
  1  5  1  0  0  0  0
  2  8  1  0  0  0  0
  3  6  1  0  0  0  0
  3 11  1  0  0  0  0
  3 12  1  0  0  0  0
  4  9  1  0  0  0  0
  5  8  1  0  0  0  0
  5  9  2  0  0  0  0
  6  7  1  0  0  0  0
  6 14  1  0  0  0  0
  6 15  1  0  0  0  0
  7  9  1  0  0  0  0
  7 10  1  0  0  0  0
  8 12  2  0  0  0  0
 12 13  1  0  0  0  0
M  END
>  <Original_Directory>
3uwm_A_rec_3utd_0cj_lig_tt_docked_3_pocket10

>  <Original_Filename>
3uwm_A_rec_3utd_0cj_lig_tt_docked_3_pocket10_gen_sample_19.sdf

>  <Molecule_ID>
sample_19

>  <logS>
1.30686

$$$$