/tmp/tmp0a8bafin
  MOE2022           3D

 32 37  0  0  1  0  0  0  0  0999 V2000
   21.9820   24.9820    9.3340 C   0  0  0  0  0  0  0  0  0  0  0  0
   22.7700   30.5180   13.7340 C   0  0  0  0  0  0  0  0  0  0  0  0
   23.5930   26.8220    9.0100 C   0  0  0  0  0  0  0  0  0  0  0  0
   24.8500   26.1590   12.4310 C   0  0  0  0  0  0  0  0  0  0  0  0
   20.2240   27.0240   10.7170 C   0  0  0  0  0  0  0  0  0  0  0  0
   19.8480   25.7120   10.4660 C   0  0  0  0  0  0  0  0  0  0  0  0
   18.5540   26.7500   13.1430 C   0  0  0  0  0  0  0  0  0  0  0  0
   18.8690   25.0780   11.2420 C   0  0  0  0  0  0  0  0  0  0  0  0
   24.2680   28.5440   13.4880 C   0  0  0  0  0  0  0  0  0  0  0  0
   21.2030   31.7030   14.8750 C   0  0  0  0  0  0  0  0  0  0  0  0
   20.6920   29.1890   14.8110 C   0  0  0  0  0  0  0  0  0  0  0  0
   22.2890   32.5800   14.5340 C   0  0  0  0  0  0  0  0  0  0  0  0
   21.5400   30.4320   14.4930 C   0  0  0  0  0  0  0  0  0  0  0  0
   23.7530   24.4220   10.9070 C   0  0  0  0  0  0  0  0  0  0  0  0
   22.7070   25.8720    8.5030 C   0  0  0  0  0  0  0  0  0  0  0  0
   24.6220   32.2920   13.6260 N   0  0  0  0  0  0  0  0  0  0  0  0
   18.2530   25.6790   12.3230 C   0  0  0  0  0  0  0  0  0  0  0  0
   20.1880   29.3580   16.1050 O   0  0  0  0  0  0  0  0  0  0  0  0
   24.4240   27.5840   12.5000 C   0  0  0  0  0  0  0  0  0  0  0  0
   22.6160   24.0860   10.1970 C   0  0  0  0  0  0  0  0  0  0  0  0
   19.4540   28.9920   13.9030 C   0  0  0  0  0  0  0  0  0  0  0  0
   23.3700   29.4990   12.9470 C   0  0  3  0  0  0  0  0  0  0  0  0
   24.1330   25.7240   11.1690 C   0  0  0  0  0  0  0  0  0  0  0  0
   20.4700   24.9850    9.2820 C   0  0  0  0  0  0  0  0  0  0  0  0
   20.1230   27.8990   11.7370 C   0  0  0  0  0  0  0  0  0  0  0  0
   19.4060   27.8230   12.9270 C   0  0  0  0  0  0  0  0  0  0  0  0
   21.4610   28.0400   14.8830 O   0  0  0  0  0  0  0  0  0  0  0  0
   22.4340   33.7750   14.8880 O   0  0  0  0  0  0  0  0  0  0  0  0
   23.3490   31.8010   13.9350 C   0  0  3  0  0  0  0  0  0  0  0  0
   23.8170   26.8690   10.3910 C   0  0  0  0  0  0  0  0  0  0  0  0
   23.1160   29.2960   11.4530 C   0  0  0  0  0  0  0  0  0  0  0  0
   23.8140   27.9940   11.2730 C   0  0  0  0  0  0  0  0  0  0  0  0
  1 15  2  0  0  0  0
  1 20  1  0  0  0  0
  1 24  1  0  0  0  0
  2 13  2  0  0  0  0
  2 22  1  0  0  0  0
  2 29  1  0  0  0  0
  3 15  1  0  0  0  0
  3 30  2  0  0  0  0
  4 19  1  0  0  0  0
  4 23  1  0  0  0  0
  5  6  2  0  0  0  0
  5 25  1  0  0  0  0
  6  8  1  0  0  0  0
  6 24  1  0  0  0  0
  7 17  1  0  0  0  0
  7 26  2  0  0  0  0
  8 17  2  0  0  0  0
  9 19  2  0  0  0  0
  9 22  1  0  0  0  0
 10 12  1  0  0  0  0
 10 13  1  0  0  0  0
 11 13  1  0  0  0  0
 11 18  1  0  0  0  0
 11 21  1  0  0  0  0
 11 27  1  0  0  0  0
 12 28  2  0  0  0  0
 12 29  1  0  0  0  0
 14 20  1  0  0  0  0
 14 23  2  0  0  0  0
 16 29  1  0  0  0  0
 19 32  1  0  0  0  0
 21 26  1  0  0  0  0
 22 31  1  0  0  0  0
 23 30  1  0  0  0  0
 25 26  1  0  0  0  0
 30 32  1  0  0  0  0
 31 32  2  0  0  0  0
M  END
>  <Original_Directory>
2pqz_A_rec_3t11_3t1_lig_tt_min_0_pocket10

>  <Original_Filename>
2pqz_A_rec_3t11_3t1_lig_tt_min_0_pocket10_gen_sample_1.sdf

>  <Molecule_ID>
sample_1

>  <logS>
-5.0976601

$$$$