/tmp/tmpw3p0o05z
  MOE2022           3D

 16 17  0  0  1  0  0  0  0  0999 V2000
   28.7450    4.8990    6.8890 C   0  0  0  0  0  0  0  0  0  0  0  0
   28.7060    3.4480   10.8810 C   0  0  0  0  0  0  0  0  0  0  0  0
   27.1570    1.7610   13.5500 O   0  0  0  0  0  0  0  0  0  0  0  0
   29.8200    4.5580    9.1770 C   0  0  0  0  0  0  0  0  0  0  0  0
   28.8920    4.1140   13.3770 C   0  0  0  0  0  0  0  0  0  0  0  0
   29.8010    4.1210   10.4510 N   0  0  0  0  0  0  0  0  0  0  0  0
   29.9460   -0.2000   10.2350 C   0  0  0  0  0  0  0  0  0  0  0  0
   30.1690    0.0870   12.7080 C   0  0  0  0  0  0  0  0  0  0  0  0
   27.7650    3.4530    8.6670 C   0  0  0  0  0  0  0  0  0  0  0  0
   28.3260    1.6710   12.7570 C   0  0  2  0  0  0  0  0  0  0  0  0
   29.2290   -0.2130   11.5740 C   0  0  3  0  0  0  0  0  0  0  0  0
   28.8060    4.2740    8.2690 C   0  0  0  0  0  0  0  0  0  0  0  0
   28.6280    3.0860   12.3210 C   0  0  3  0  0  0  0  0  0  0  0  0
   28.1500    0.7810   11.6020 N   0  0  0  0  0  0  0  0  0  0  0  0
   29.4490    1.0910   13.5900 C   0  0  0  0  0  0  0  0  0  0  0  0
   27.7340    3.0230    9.9840 C   0  0  0  0  0  0  0  0  0  0  0  0
  1 12  1  0  0  0  0
  2  6  1  0  0  0  0
  2 13  1  0  0  0  0
  2 16  2  0  0  0  0
  3 10  1  0  0  0  0
  4  6  2  0  0  0  0
  4 12  1  0  0  0  0
  5 13  1  0  0  0  0
  7 11  1  0  0  0  0
  8 11  1  0  0  0  0
  8 15  1  0  0  0  0
  9 12  2  0  0  0  0
  9 16  1  0  0  0  0
 10 13  1  0  0  0  0
 10 14  1  0  0  0  0
 10 15  1  0  0  0  0
 11 14  1  0  0  0  0
M  END
>  <Original_Directory>
2blc_A_rec_2blc_cp7_lig_tt_min_0_pocket10

>  <Original_Filename>
2blc_A_rec_2blc_cp7_lig_tt_min_0_pocket10_gen_sample_9.sdf

>  <Molecule_ID>
sample_9

>  <logS>
-1.17688

$$$$