/tmp/tmpj5rg3ot4
  MOE2022           3D

 20 22  0  0  1  0  0  0  0  0999 V2000
   53.9110   46.0350   -1.4030 C   0  0  0  0  0  0  0  0  0  0  0  0
   54.1200   45.6610    0.9880 C   0  0  0  0  0  0  0  0  0  0  0  0
   51.9940   45.3740   -0.1330 C   0  0  0  0  0  0  0  0  0  0  0  0
   59.2660   49.5240   -1.4070 C   0  0  0  0  0  0  0  0  0  0  0  0
   56.1760   46.3460   -2.0770 C   0  0  3  0  0  0  0  0  0  0  0  0
   52.0950   45.6680    2.2360 O   0  0  0  0  0  0  0  0  0  0  0  0
   57.0280   45.9790    0.1700 O   0  0  0  0  0  0  0  0  0  0  0  0
   52.5690   45.6860   -1.3620 C   0  0  0  0  0  0  0  0  0  0  0  0
   54.7250   46.5460   -2.5530 C   0  0  0  0  0  0  0  0  0  0  0  0
   56.0960   46.0600   -0.5940 C   0  0  0  0  0  0  0  0  0  0  0  0
   59.6320   49.1820   -2.7220 C   0  0  0  0  0  0  0  0  0  0  0  0
   57.7700   47.6650   -3.5060 C   0  0  0  0  0  0  0  0  0  0  0  0
   50.6900   44.9330   -0.0900 O   0  0  0  0  0  0  0  0  0  0  0  0
   54.6790   45.9070   -0.2530 C   0  0  0  0  0  0  0  0  0  0  0  0
   58.0990   49.2050   -0.7670 C   0  0  0  0  0  0  0  0  0  0  0  0
   52.7460   45.4790    1.0450 C   0  0  0  0  0  0  0  0  0  0  0  0
   56.9910   47.5760   -2.3850 C   0  0  3  0  0  0  0  0  0  0  0  0
   58.9580   48.4380   -3.6300 C   0  0  0  0  0  0  0  0  0  0  0  0
   55.7910   49.3180   -1.2810 O   0  0  0  0  0  0  0  0  0  0  0  0
   56.8740   48.7650   -1.4550 C   0  0  0  0  0  0  0  0  0  0  0  0
  1  8  2  0  0  0  0
  1  9  1  0  0  0  0
  1 14  1  0  0  0  0
  2 14  2  0  0  0  0
  2 16  1  0  0  0  0
  3  8  1  0  0  0  0
  3 13  1  0  0  0  0
  3 16  2  0  0  0  0
  4 11  1  0  0  0  0
  4 15  1  0  0  0  0
  5  9  1  0  0  0  0
  5 10  1  0  0  0  0
  5 17  1  0  0  0  0
  6 16  1  0  0  0  0
  7 10  2  0  0  0  0
 10 14  1  0  0  0  0
 11 18  2  0  0  0  0
 12 17  1  0  0  0  0
 12 18  1  0  0  0  0
 15 20  1  0  0  0  0
 17 20  1  0  0  0  0
 19 20  2  0  0  0  0
M  END
>  <Original_Directory>
4jtt_A_rec_4jtt_jtt_lig_tt_docked_7_pocket10

>  <Original_Filename>
4jtt_A_rec_4jtt_jtt_lig_tt_docked_7_pocket10_gen_sample_11.sdf

>  <Molecule_ID>
sample_11

>  <logS>
-1.29449

$$$$