/tmp/tmph8ibg2_e
  MOE2022           3D

 25 28  0  0  1  0  0  0  0  0999 V2000
  -18.3430   -6.1470   15.9500 C   0  0  3  0  0  0  0  0  0  0  0  0
  -17.4040   -6.2510   17.0870 N   0  0  0  0  0  0  0  0  0  0  0  0
  -11.6980   -4.9600   18.0500 N   0  0  0  0  0  0  0  0  0  0  0  0
  -13.7420   -5.7480   16.6680 C   0  0  0  0  0  0  0  0  0  0  0  0
  -15.2410   -5.3760   18.4990 C   0  0  0  0  0  0  0  0  0  0  0  0
  -19.7220   -8.1420   14.7210 C   0  0  0  0  0  0  0  0  0  0  0  0
  -11.9860   -2.0110   20.3710 C   0  0  0  0  0  0  0  0  0  0  0  0
  -11.4400   -4.1690   19.1290 C   0  0  0  0  0  0  0  0  0  0  0  0
  -17.6920   -6.9990   15.0820 C   0  0  3  0  0  0  0  0  0  0  0  0
  -13.9840   -4.5900   18.5850 C   0  0  3  0  0  0  0  0  0  0  0  0
  -16.1830   -5.7470   16.3530 C   0  0  3  0  0  0  0  0  0  0  0  0
  -19.6130   -6.4210   16.3660 N   0  0  0  0  0  0  0  0  0  0  0  0
  -20.3340   -7.3570   15.7190 C   0  0  0  0  0  0  0  0  0  0  0  0
  -13.4620   -0.0890   20.6010 C   0  0  0  0  0  0  0  0  0  0  0  0
  -13.3790    1.1510   20.7470 O   0  0  0  0  0  0  0  0  0  0  0  0
  -12.3300   -3.1460   19.4560 C   0  0  3  0  0  0  0  0  0  0  0  0
  -13.6260   -3.3050   18.9700 C   0  0  3  0  0  0  0  0  0  0  0  0
  -14.3740   -0.7830   21.1070 O   0  0  0  0  0  0  0  0  0  0  0  0
  -14.3860   -2.2430   18.6870 O   0  0  0  0  0  0  0  0  0  0  0  0
  -21.3960   -7.7600   16.2890 O   0  0  0  0  0  0  0  0  0  0  0  0
  -15.0560   -6.1800   17.2430 N   0  0  0  0  0  0  0  0  0  0  0  0
  -18.4450   -7.8230   14.2880 C   0  0  0  0  0  0  0  0  0  0  0  0
  -16.2540   -6.6070   15.0830 C   0  0  0  0  0  0  0  0  0  0  0  0
  -12.4990   -0.7420   19.8710 N   0  0  0  0  0  0  0  0  0  0  0  0
  -13.0180   -5.2440   17.8830 C   0  0  3  0  0  0  0  0  0  0  0  0
  1  2  1  0  0  0  0
  1  9  1  0  0  0  0
  1 12  1  0  0  0  0
  2 11  1  0  0  0  0
  3  8  1  0  0  0  0
  3 25  1  0  0  0  0
  4 21  1  0  0  0  0
  4 25  1  0  0  0  0
  5 10  1  0  0  0  0
  5 21  1  0  0  0  0
  6 13  1  0  0  0  0
  6 22  1  0  0  0  0
  7 16  1  0  0  0  0
  7 24  1  0  0  0  0
  8 16  1  0  0  0  0
  9 22  1  0  0  0  0
  9 23  1  0  0  0  0
 10 17  1  0  0  0  0
 10 25  1  0  0  0  0
 11 21  1  0  0  0  0
 11 23  1  0  0  0  0
 12 13  1  0  0  0  0
 13 20  2  0  0  0  0
 14 15  2  0  0  0  0
 14 18  1  0  0  0  0
 14 24  1  0  0  0  0
 16 17  1  0  0  0  0
 17 19  1  0  0  0  0
M  END
>  <Original_Directory>
5i4o_A_rec_4h76_10b_lig_tt_docked_5_pocket10

>  <Original_Filename>
5i4o_A_rec_4h76_10b_lig_tt_docked_5_pocket10_gen_sample_5.sdf

>  <Molecule_ID>
sample_5

>  <logS>
0.29933

$$$$