/tmp/tmp6gkgae_7
  MOE2022           3D

 10 11  0  0  1  0  0  0  0  0999 V2000
   27.3950   18.1090    5.7400 C   0  0  3  0  0  0  0  0  0  0  0  0
   27.6330   16.0490    6.6030 C   0  0  0  0  0  0  0  0  0  0  0  0
   29.6340   18.3050    4.4270 C   0  0  0  0  0  0  0  0  0  0  0  0
   29.7310   17.5700    6.8250 C   0  0  0  0  0  0  0  0  0  0  0  0
   28.2160   18.7780    4.6030 C   0  0  0  0  0  0  0  0  0  0  0  0
   31.2970   16.4050    5.1160 C   0  0  0  0  0  0  0  0  0  0  0  0
   28.1830   17.4400    6.9180 C   0  0  1  0  0  0  0  0  0  0  0  0
   27.7480   18.0110    8.2180 N   0  0  0  0  0  0  0  0  0  0  0  0
   26.9470   16.6250    5.3610 C   0  0  0  0  0  0  0  0  0  0  0  0
   30.2450   17.4560    5.4110 C   0  0  3  0  0  0  0  0  0  0  0  0
  1  5  1  0  0  0  0
  1  7  1  0  0  0  0
  1  9  1  0  0  0  0
  2  7  1  0  0  0  0
  2  9  1  0  0  0  0
  3  5  2  0  0  0  0
  3 10  1  0  0  0  0
  4  7  1  0  0  0  0
  4 10  1  0  0  0  0
  6 10  1  0  0  0  0
  7  8  1  0  0  0  0
M  END
>  <Original_Directory>
1cqp_A_rec_3f78_icf_lig_tt_min_0_pocket10

>  <Original_Filename>
1cqp_A_rec_3f78_icf_lig_tt_min_0_pocket10_gen_sample_17.sdf

>  <Molecule_ID>
sample_17

>  <logS>
-0.84433001

$$$$