/tmp/tmp3h2h615k
  MOE2022           3D

 10 11  0  0  1  0  0  0  0  0999 V2000
   28.0120   15.9590    4.0490 C   0  0  0  0  0  0  0  0  0  0  0  0
   30.7990   18.3870    4.8150 N   0  0  0  0  0  0  0  0  0  0  0  0
   29.3650   15.6590    4.2330 C   0  0  0  0  0  0  0  0  0  0  0  0
   27.6110   17.2770    3.9030 C   0  0  0  0  0  0  0  0  0  0  0  0
   28.4970   19.3720    3.2800 O   0  0  0  0  0  0  0  0  0  0  0  0
   28.5040   18.3130    4.0890 C   0  0  3  0  0  0  0  0  0  0  0  0
   29.4720   17.2560    5.9830 N   0  0  0  0  0  0  0  0  0  0  0  0
   29.4690   18.3080    5.1480 C   0  0  3  0  0  0  0  0  0  0  0  0
   30.1110   16.3530    5.1850 C   0  0  3  0  0  0  0  0  0  0  0  0
   31.2460   17.0950    4.8610 C   0  0  0  0  0  0  0  0  0  0  0  0
  1  3  1  0  0  0  0
  1  4  2  0  0  0  0
  2  8  1  0  0  0  0
  2 10  1  0  0  0  0
  3  9  1  0  0  0  0
  4  6  1  0  0  0  0
  5  6  1  0  0  0  0
  6  8  1  0  0  0  0
  7  8  1  0  0  0  0
  7  9  1  0  0  0  0
  9 10  1  0  0  0  0
M  END
>  <Original_Directory>
1cqp_A_rec_3f78_icf_lig_tt_min_0_pocket10

>  <Original_Filename>
1cqp_A_rec_3f78_icf_lig_tt_min_0_pocket10_gen_sample_3.sdf

>  <Molecule_ID>
sample_3

>  <logS>
0.51196998

$$$$