/tmp/tmpod5lutb4
  MOE2022           3D

 11 12  0  0  1  0  0  0  0  0999 V2000
  -15.9240   10.2760   40.1300 C   0  0  2  0  0  0  0  0  0  0  0  0
  -15.1320   11.4100   39.4500 C   0  0  0  0  0  0  0  0  0  0  0  0
  -15.0420    9.4030   41.0210 C   0  0  0  0  0  0  0  0  0  0  0  0
  -13.3690   11.3360   41.2330 C   0  0  0  0  0  0  0  0  0  0  0  0
  -15.3940   12.7670   41.5250 C   0  0  0  0  0  0  0  0  0  0  0  0
  -16.6260   12.1780   41.6840 C   0  0  0  0  0  0  0  0  0  0  0  0
  -14.3940   12.2150   40.5180 C   0  0  3  0  0  0  0  0  0  0  0  0
  -16.5120    9.4760   39.1210 O   0  0  0  0  0  0  0  0  0  0  0  0
  -18.1020   10.4070   41.1990 N   0  0  0  0  0  0  0  0  0  0  0  0
  -13.6020    9.8400   41.1960 C   0  0  0  0  0  0  0  0  0  0  0  0
  -16.9820   10.9490   41.0180 C   0  0  0  0  0  0  0  0  0  0  0  0
  1  2  1  0  0  0  0
  1  3  1  0  0  0  0
  1  8  1  0  0  0  0
  1 11  1  0  0  0  0
  2  7  1  0  0  0  0
  3 10  1  0  0  0  0
  4  7  1  0  0  0  0
  4 10  1  0  0  0  0
  5  6  2  0  0  0  0
  5  7  1  0  0  0  0
  6 11  1  0  0  0  0
  9 11  2  0  0  0  0
M  END
>  <Original_Directory>
4xj0_A_rec_4qp2_36r_lig_tt_min_0_pocket10

>  <Original_Filename>
4xj0_A_rec_4qp2_36r_lig_tt_min_0_pocket10_gen_sample_13.sdf

>  <Molecule_ID>
sample_13

>  <logS>
-1.60062

$$$$