/tmp/tmpqypez5a6
  MOE2022           3D

 32 36  0  0  1  0  0  0  0  0999 V2000
   54.3340   46.2050    0.3230 C   0  0  3  0  0  0  0  0  0  0  0  0
   55.2340   46.7100   -3.1910 C   0  0  0  0  0  0  0  0  0  0  0  0
   48.2470   38.4550   -2.6850 C   0  0  0  0  0  0  0  0  0  0  0  0
   50.1610   44.2150    0.5110 C   0  0  0  0  0  0  0  0  0  0  0  0
   48.6670   40.5530   -1.2530 C   0  0  0  0  0  0  0  0  0  0  0  0
   57.0200   48.3730   -1.0780 C   0  0  0  0  0  0  0  0  0  0  0  0
   49.2220   40.9380   -4.8550 F   0  0  0  0  0  0  0  0  0  0  0  0
   51.3100   43.7880   -1.4420 C   0  0  0  0  0  0  0  0  0  0  0  0
   47.7600   39.3820   -3.8280 C   0  0  2  0  0  0  0  0  0  0  0  0
   49.4290   43.2640   -0.2330 C   0  0  0  0  0  0  0  0  0  0  0  0
   51.9280   45.8470   -0.1130 N   0  0  0  0  0  0  0  0  0  0  0  0
   46.8090   38.9510   -0.7130 C   0  0  0  0  0  0  0  0  0  0  0  0
   51.5770   42.0470   -3.0760 C   0  0  0  0  0  0  0  0  0  0  0  0
   49.2670   40.9500   -2.5640 N   0  0  0  0  0  0  0  0  0  0  0  0
   55.7650   47.8190   -1.0920 C   0  0  0  0  0  0  0  0  0  0  0  0
   56.3160   47.2030   -3.9300 C   0  0  0  0  0  0  0  0  0  0  0  0
   52.1680   43.3910   -2.6240 C   0  0  0  0  0  0  0  0  0  0  0  0
   54.5280   45.7720   -1.0540 N   0  0  0  0  0  0  0  0  0  0  0  0
   45.7030   38.6540   -1.4720 C   0  0  0  0  0  0  0  0  0  0  0  0
   50.1890   42.9780   -1.3880 C   0  0  0  0  0  0  0  0  0  0  0  0
   55.5170   45.7280    1.1560 C   0  0  0  0  0  0  0  0  0  0  0  0
   46.2440   39.5310   -3.8010 C   0  0  0  0  0  0  0  0  0  0  0  0
   52.9990   45.7690    0.8850 C   0  0  0  0  0  0  0  0  0  0  0  0
   57.3540   47.9930   -3.4950 C   0  0  0  0  0  0  0  0  0  0  0  0
   48.2210   39.0790   -1.2790 C   0  0  3  0  0  0  0  0  0  0  0  0
   57.7880   48.4960   -2.2610 C   0  0  0  0  0  0  0  0  0  0  0  0
   50.1440   42.1150   -2.5790 C   0  0  3  0  0  0  0  0  0  0  0  0
   51.1950   44.6840   -0.3500 C   0  0  3  0  0  0  0  0  0  0  0  0
   48.0610   38.7670   -5.0840 O   0  0  0  0  0  0  0  0  0  0  0  0
   55.1960   46.7570   -1.7960 C   0  0  0  0  0  0  0  0  0  0  0  0
   48.4090   40.7790   -3.7530 C   0  0  3  0  0  0  0  0  0  0  0  0
   45.4300   38.9310   -2.8740 C   0  0  0  0  0  0  0  0  0  0  0  0
  1 18  1  0  0  0  0
  1 21  1  0  0  0  0
  1 23  1  0  0  0  0
  2 16  2  0  0  0  0
  2 30  1  0  0  0  0
  3  9  1  0  0  0  0
  3 25  1  0  0  0  0
  4 10  1  0  0  0  0
  4 28  1  0  0  0  0
  5 14  1  0  0  0  0
  5 25  1  0  0  0  0
  6 15  2  0  0  0  0
  6 26  1  0  0  0  0
  7 31  1  0  0  0  0
  8 17  1  0  0  0  0
  8 20  2  0  0  0  0
  8 28  1  0  0  0  0
  9 22  1  0  0  0  0
  9 29  1  0  0  0  0
  9 31  1  0  0  0  0
 10 20  1  0  0  0  0
 11 23  1  0  0  0  0
 11 28  1  0  0  0  0
 12 19  1  0  0  0  0
 12 25  1  0  0  0  0
 13 17  1  0  0  0  0
 13 27  1  0  0  0  0
 14 27  1  0  0  0  0
 14 31  1  0  0  0  0
 15 30  1  0  0  0  0
 16 24  1  0  0  0  0
 18 30  1  0  0  0  0
 19 32  2  0  0  0  0
 20 27  1  0  0  0  0
 22 32  1  0  0  0  0
 24 26  2  0  0  0  0
M  END
>  <Original_Directory>
4jts_A_rec_2fqi_ilh_lig_tt_docked_3_pocket10

>  <Original_Filename>
4jts_A_rec_2fqi_ilh_lig_tt_docked_3_pocket10_gen_sample_1.sdf

>  <Molecule_ID>
sample_1

>  <logS>
-2.8532

$$$$