/tmp/tmpnfruojzd
  MOE2022           3D

 32 37  0  0  1  0  0  0  0  0999 V2000
   46.3480   39.1710   -4.0120 O   0  0  0  0  0  0  0  0  0  0  0  0
   49.6910   43.0460    0.2000 C   0  0  0  0  0  0  0  0  0  0  0  0
   51.2100   45.0620    0.6350 C   0  0  0  0  0  0  0  0  0  0  0  0
   50.4020   44.2630   -0.3770 C   0  0  3  0  0  0  0  0  0  0  0  0
   47.2500   36.2480    0.0690 C   0  0  0  0  0  0  0  0  0  0  0  0
   47.0140   37.6420   -0.4930 C   0  0  0  0  0  0  0  0  0  0  0  0
   51.2250   42.7440   -2.2810 C   0  0  0  0  0  0  0  0  0  0  0  0
   51.4100   43.9700   -1.4630 C   0  0  3  0  0  0  0  0  0  0  0  0
   48.1490   38.8720   -2.4470 C   0  0  0  0  0  0  0  0  0  0  0  0
   57.1370   46.2720   -2.1170 C   0  0  0  0  0  0  0  0  0  0  0  0
   51.6820   42.7060   -3.4340 O   0  0  0  0  0  0  0  0  0  0  0  0
   55.8710   46.2780    0.6230 C   0  0  0  0  0  0  0  0  0  0  0  0
   49.7650   40.6690   -2.4840 C   0  0  0  0  0  0  0  0  0  0  0  0
   49.2140   39.5470   -1.8450 C   0  0  0  0  0  0  0  0  0  0  0  0
   53.6800   45.1430    0.7680 C   0  0  0  0  0  0  0  0  0  0  0  0
   54.9000   45.5490   -0.0540 C   0  0  0  0  0  0  0  0  0  0  0  0
   52.4600   45.5650   -0.0890 C   0  0  3  0  0  0  0  0  0  0  0  0
   53.7340   44.7980   -2.2090 C   0  0  0  0  0  0  0  0  0  0  0  0
   57.4590   47.1230   -1.0830 C   0  0  0  0  0  0  0  0  0  0  0  0
   47.6350   39.3980   -3.6330 C   0  0  0  0  0  0  0  0  0  0  0  0
   48.3310   36.3610   -2.1110 C   0  0  0  0  0  0  0  0  0  0  0  0
   47.5540   37.6220   -1.8960 C   0  0  0  0  0  0  0  0  0  0  0  0
   50.2670   41.6940   -0.1860 C   0  0  0  0  0  0  0  0  0  0  0  0
   48.4920   40.1450   -4.4560 C   0  0  0  0  0  0  0  0  0  0  0  0
   54.9670   45.2470   -1.4380 C   0  0  0  0  0  0  0  0  0  0  0  0
   50.4390   41.6700   -1.7030 C   0  0  3  0  0  0  0  0  0  0  0  0
   56.7890   47.1820    0.1420 C   0  0  0  0  0  0  0  0  0  0  0  0
   48.2010   40.2220   -5.7710 O   0  0  0  0  0  0  0  0  0  0  0  0
   49.6340   40.7200   -3.8920 C   0  0  0  0  0  0  0  0  0  0  0  0
   48.2320   35.5470   -0.8480 C   0  0  0  0  0  0  0  0  0  0  0  0
   56.1310   45.3210   -2.1970 C   0  0  0  0  0  0  0  0  0  0  0  0
   52.5360   44.6850   -1.3010 C   0  0  3  0  0  0  0  0  0  0  0  0
  1 20  1  0  0  0  0
  2  4  1  0  0  0  0
  2 23  1  0  0  0  0
  3  4  1  0  0  0  0
  3 17  1  0  0  0  0
  4  8  1  0  0  0  0
  5  6  1  0  0  0  0
  5 30  1  0  0  0  0
  6 22  1  0  0  0  0
  7  8  1  0  0  0  0
  7 11  2  0  0  0  0
  7 26  1  0  0  0  0
  8 32  1  0  0  0  0
  9 14  2  0  0  0  0
  9 20  1  0  0  0  0
  9 22  1  0  0  0  0
 10 19  1  0  0  0  0
 10 31  2  0  0  0  0
 12 16  1  0  0  0  0
 12 27  2  0  0  0  0
 13 14  1  0  0  0  0
 13 26  1  0  0  0  0
 13 29  2  0  0  0  0
 15 16  1  0  0  0  0
 15 17  1  0  0  0  0
 16 25  2  0  0  0  0
 17 32  1  0  0  0  0
 18 25  1  0  0  0  0
 18 32  1  0  0  0  0
 19 27  1  0  0  0  0
 20 24  2  0  0  0  0
 21 22  1  0  0  0  0
 21 30  1  0  0  0  0
 23 26  1  0  0  0  0
 24 28  1  0  0  0  0
 24 29  1  0  0  0  0
 25 31  1  0  0  0  0
M  END
>  <Original_Directory>
4jts_A_rec_2fqi_ilh_lig_tt_docked_3_pocket10

>  <Original_Filename>
4jts_A_rec_2fqi_ilh_lig_tt_docked_3_pocket10_gen_sample_17.sdf

>  <Molecule_ID>
sample_17

>  <logS>
-7.2704701

$$$$