/tmp/tmph7xlkvt5
  MOE2022           3D

 16 18  0  0  1  0  0  0  0  0999 V2000
   -4.7730   24.3580    9.5010 C   0  0  0  0  0  0  0  0  0  0  0  0
   -6.0720   19.4760   12.5100 N   0  0  0  0  0  0  0  0  0  0  0  0
   -6.0460   24.1240    8.9970 C   0  0  0  0  0  0  0  0  0  0  0  0
   -5.2230   18.8940   13.3670 C   0  0  0  0  0  0  0  0  0  0  0  0
   -4.0200   19.3120   13.7140 N   0  0  0  0  0  0  0  0  0  0  0  0
   -5.1410   22.6870   11.1670 C   0  0  3  0  0  0  0  0  0  0  0  0
   -7.9390   20.7130   10.8490 O   0  0  0  0  0  0  0  0  0  0  0  0
   -6.2280   22.2520   10.4370 N   0  0  0  0  0  0  0  0  0  0  0  0
   -4.2350   23.4940   10.4630 C   0  0  0  0  0  0  0  0  0  0  0  0
   -7.7180   22.5250    8.8060 O   0  0  0  0  0  0  0  0  0  0  0  0
   -6.8350   21.2290   11.0870 C   0  0  0  0  0  0  0  0  0  0  0  0
   -3.3500   20.4570   13.5610 C   0  0  0  0  0  0  0  0  0  0  0  0
   -5.9980   20.8380   12.2330 C   0  0  3  0  0  0  0  0  0  0  0  0
   -3.6720   21.5800   12.8730 C   0  0  0  0  0  0  0  0  0  0  0  0
   -6.8090   23.0850    9.5390 C   0  0  0  0  0  0  0  0  0  0  0  0
   -4.8210   21.6200   12.0500 C   0  0  3  0  0  0  0  0  0  0  0  0
  1  3  2  0  0  0  0
  1  9  1  0  0  0  0
  2  4  1  0  0  0  0
  2 13  1  0  0  0  0
  3 15  1  0  0  0  0
  4  5  2  0  0  0  0
  5 12  1  0  0  0  0
  6  8  1  0  0  0  0
  6  9  1  0  0  0  0
  6 16  1  0  0  0  0
  7 11  2  0  0  0  0
  8 11  1  0  0  0  0
  8 15  1  0  0  0  0
 10 15  2  0  0  0  0
 11 13  1  0  0  0  0
 12 14  2  0  0  0  0
 13 16  1  0  0  0  0
 14 16  1  0  0  0  0
M  END
>  <Original_Directory>
5k01_A_rec_5k03_6p4_lig_tt_docked_1_pocket10

>  <Original_Filename>
5k01_A_rec_5k03_6p4_lig_tt_docked_1_pocket10_gen_sample_11.sdf

>  <Molecule_ID>
sample_11

>  <logS>
-1.07136

$$$$