/tmp/tmpjyj07f12
  MOE2022           3D

 20 22  0  0  1  0  0  0  0  0999 V2000
  -21.4130    1.6890   -8.5650 C   0  0  0  0  0  0  0  0  0  0  0  0
  -22.1430   -1.7950   -7.8230 N   0  0  0  0  0  0  0  0  0  0  0  0
  -21.2990    3.4680  -10.1520 O   0  0  0  0  0  0  0  0  0  0  0  0
  -21.4370   -0.9030   -4.1350 C   0  0  0  0  0  0  0  0  0  0  0  0
  -22.5130    0.2060   -4.1640 C   0  0  2  0  0  0  0  0  0  0  0  0
  -21.4910    2.1490   -9.8820 C   0  0  0  0  0  0  0  0  0  0  0  0
  -23.8700   -0.4400   -3.9010 C   0  0  0  0  0  0  0  0  0  0  0  0
  -21.4100   -1.8570   -5.3200 C   0  0  0  0  0  0  0  0  0  0  0  0
  -22.3550    1.8740  -12.0730 O   0  0  0  0  0  0  0  0  0  0  0  0
  -21.9350   -1.2360   -6.5960 C   0  0  3  0  0  0  0  0  0  0  0  0
  -21.5340   -1.0490  -10.0960 C   0  0  0  0  0  0  0  0  0  0  0  0
  -22.5160    0.9760   -5.4990 C   0  0  0  0  0  0  0  0  0  0  0  0
  -20.8760   -0.4700  -12.2960 O   0  0  0  0  0  0  0  0  0  0  0  0
  -21.9360   -0.8100   -8.7540 C   0  0  0  0  0  0  0  0  0  0  0  0
  -21.9110    0.4570   -8.0700 C   0  0  3  0  0  0  0  0  0  0  0  0
  -21.7310    1.3160  -11.0090 C   0  0  0  0  0  0  0  0  0  0  0  0
  -22.1590    0.1530   -6.7030 C   0  0  3  0  0  0  0  0  0  0  0  0
  -21.2920   -2.3110  -10.4400 F   0  0  0  0  0  0  0  0  0  0  0  0
  -21.3950   -0.0750  -11.1060 C   0  0  0  0  0  0  0  0  0  0  0  0
  -22.2590    1.1490   -3.1280 O   0  0  0  0  0  0  0  0  0  0  0  0
  1  6  2  0  0  0  0
  1 15  1  0  0  0  0
  2 10  1  0  0  0  0
  2 14  1  0  0  0  0
  3  6  1  0  0  0  0
  4  5  1  0  0  0  0
  4  8  1  0  0  0  0
  5  7  1  0  0  0  0
  5 12  1  0  0  0  0
  5 20  1  0  0  0  0
  6 16  1  0  0  0  0
  8 10  1  0  0  0  0
  9 16  1  0  0  0  0
 10 17  1  0  0  0  0
 11 14  2  0  0  0  0
 11 18  1  0  0  0  0
 11 19  1  0  0  0  0
 12 17  1  0  0  0  0
 13 19  1  0  0  0  0
 14 15  1  0  0  0  0
 15 17  1  0  0  0  0
 16 19  2  0  0  0  0
M  END
>  <Original_Directory>
2roy_A_rec_3p3u_3m4_lig_tt_docked_2_pocket10

>  <Original_Filename>
2roy_A_rec_3p3u_3m4_lig_tt_docked_2_pocket10_gen_sample_3.sdf

>  <Molecule_ID>
sample_3

>  <logS>
-1.36128

$$$$