/tmp/tmpgdm4z47s
  MOE2022           3D

 14 14  0  0  1  0  0  0  0  0999 V2000
   31.2430   33.3610   52.4610 O   0  0  0  0  0  0  0  0  0  0  0  0
   33.2500   34.3650   53.2100 C   0  0  1  0  0  0  0  0  0  0  0  0
   33.6500   35.5230   54.1120 C   0  0  0  0  0  0  0  0  0  0  0  0
   36.3510   32.7850   54.7580 O   0  0  0  0  0  0  0  0  0  0  0  0
   33.9940   33.0990   53.4950 C   0  0  0  0  0  0  0  0  0  0  0  0
   35.2460   33.0390   52.6990 C   0  0  3  0  0  0  0  0  0  0  0  0
   31.1560   34.5250   54.2950 O   0  0  0  0  0  0  0  0  0  0  0  0
   31.7730   34.0520   53.3320 C   0  0  0  0  0  0  0  0  0  0  0  0
   36.4520   33.1620   53.5760 C   0  0  0  0  0  0  0  0  0  0  0  0
   33.6860   34.6520   51.7710 C   0  0  3  0  0  0  0  0  0  0  0  0
   33.5710   36.0300   51.4850 O   0  0  0  0  0  0  0  0  0  0  0  0
   33.5730   32.2010   54.2380 O   0  0  0  0  0  0  0  0  0  0  0  0
   35.1230   34.1840   51.7100 C   0  0  0  0  0  0  0  0  0  0  0  0
   37.4850   33.6840   53.1260 O   0  0  0  0  0  0  0  0  0  0  0  0
  1  8  2  0  0  0  0
  2  3  1  0  0  0  0
  2  5  1  0  0  0  0
  2  8  1  0  0  0  0
  2 10  1  0  0  0  0
  4  9  1  0  0  0  0
  5  6  1  0  0  0  0
  5 12  2  0  0  0  0
  6  9  1  0  0  0  0
  6 13  1  0  0  0  0
  7  8  1  0  0  0  0
  9 14  2  0  0  0  0
 10 11  1  0  0  0  0
 10 13  1  0  0  0  0
M  END
>  <Original_Directory>
4ciw_A_rec_4civ_48p_lig_tt_min_0_pocket10

>  <Original_Filename>
4ciw_A_rec_4civ_48p_lig_tt_min_0_pocket10_gen_sample_7.sdf

>  <Molecule_ID>
sample_7

>  <logS>
0.22363

$$$$