/tmp/tmpizvdde8b
  MOE2022           3D

 28 32  0  0  1  0  0  0  0  0999 V2000
  -11.0240   34.7110   10.0730 C   0  0  0  0  0  0  0  0  0  0  0  0
  -12.1850   32.8890   12.4970 C   0  0  0  0  0  0  0  0  0  0  0  0
  -13.1150   33.8230   12.2700 C   0  0  0  0  0  0  0  0  0  0  0  0
  -13.1670   34.9730   11.4090 C   0  0  0  0  0  0  0  0  0  0  0  0
   -9.9830   28.8800   12.0890 C   0  0  0  0  0  0  0  0  0  0  0  0
   -6.1700   28.8430    7.3140 C   0  0  0  0  0  0  0  0  0  0  0  0
   -7.6240   28.4780    9.1960 C   0  0  0  0  0  0  0  0  0  0  0  0
   -9.4390   28.7510   10.6730 C   0  0  3  0  0  0  0  0  0  0  0  0
   -7.9030   30.4340    7.8470 C   0  0  0  0  0  0  0  0  0  0  0  0
  -10.8670   32.7060   11.7970 C   0  0  3  0  0  0  0  0  0  0  0  0
   -8.8960   30.1020   10.2430 C   0  0  3  0  0  0  0  0  0  0  0  0
   -9.7500   32.5270    9.6190 C   0  0  0  0  0  0  0  0  0  0  0  0
   -4.3550   32.3350    5.6140 P   0  0  0  0  0  0  0  0  0  0  0  0
   -5.5860   31.8920    6.5340 O   0  0  0  0  0  0  0  0  0  0  0  0
   -4.9880   33.0090    4.4330 O   0  0  0  0  0  0  0  0  0  0  0  0
   -4.9980   28.5710    6.6630 O   0  0  0  0  0  0  0  0  0  0  0  0
  -10.6580   33.4130   10.4590 C   0  0  3  0  0  0  0  0  0  0  0  0
  -10.2940   30.2990   12.5700 C   0  0  0  0  0  0  0  0  0  0  0  0
   -8.1290   29.7560    9.0260 C   0  0  0  0  0  0  0  0  0  0  0  0
   -6.4900   30.9540    5.9180 C   0  0  0  0  0  0  0  0  0  0  0  0
   -3.5290   33.3040    6.3940 O   0  0  0  0  0  0  0  0  0  0  0  0
   -8.1290   27.9380   10.5350 C   0  0  0  0  0  0  0  0  0  0  0  0
   -3.5910   31.0650    5.3930 O   0  0  0  0  0  0  0  0  0  0  0  0
  -12.1040   35.4780   10.6150 C   0  0  0  0  0  0  0  0  0  0  0  0
   -9.3420   31.4610   10.6430 C   0  0  3  0  0  0  0  0  0  0  0  0
   -6.8590   30.0220    7.0280 C   0  0  0  0  0  0  0  0  0  0  0  0
  -10.6530   31.2420   11.4090 C   0  0  3  0  0  0  0  0  0  0  0  0
   -6.6120   28.0220    8.3580 C   0  0  0  0  0  0  0  0  0  0  0  0
  1 17  1  0  0  0  0
  1 24  2  0  0  0  0
  2  3  2  0  0  0  0
  2 10  1  0  0  0  0
  3  4  1  0  0  0  0
  4 24  1  0  0  0  0
  5  8  1  0  0  0  0
  5 18  1  0  0  0  0
  6 16  1  0  0  0  0
  6 26  2  0  0  0  0
  6 28  1  0  0  0  0
  7 19  1  0  0  0  0
  7 22  1  0  0  0  0
  7 28  2  0  0  0  0
  8 11  1  0  0  0  0
  8 22  1  0  0  0  0
  9 19  2  0  0  0  0
  9 26  1  0  0  0  0
 10 17  1  0  0  0  0
 10 27  1  0  0  0  0
 11 19  1  0  0  0  0
 11 25  1  0  0  0  0
 12 17  1  0  0  0  0
 12 25  1  0  0  0  0
 13 14  1  0  0  0  0
 13 15  2  0  0  0  0
 13 21  1  0  0  0  0
 13 23  1  0  0  0  0
 14 20  1  0  0  0  0
 18 27  1  0  0  0  0
 20 26  1  0  0  0  0
 25 27  1  0  0  0  0
M  END
>  <Original_Directory>
2np8_A_rec_4byi_fh3_lig_tt_docked_0_pocket10

>  <Original_Filename>
2np8_A_rec_4byi_fh3_lig_tt_docked_0_pocket10_gen_sample_16.sdf

>  <Molecule_ID>
sample_16

>  <logS>
-5.8102798

$$$$