/tmp/tmpdjm4267l
  MOE2022           3D

 12 13  0  0  0  0  0  0  0  0999 V2000
    3.7070    1.2400   26.7580 C   0  0  0  0  0  0  0  0  0  0  0  0
    1.1830    1.4510   25.7130 N   0  0  0  0  0  0  0  0  0  0  0  0
    2.6000    1.3950   27.5910 C   0  0  0  0  0  0  0  0  0  0  0  0
   -1.0890    1.6350   29.9060 C   0  0  0  0  0  0  0  0  0  0  0  0
    1.3270    1.2630   27.0360 C   0  0  0  0  0  0  0  0  0  0  0  0
    0.0390    1.7890   29.1110 C   0  0  0  0  0  0  0  0  0  0  0  0
    2.2260    1.1790   24.9120 C   0  0  0  0  0  0  0  0  0  0  0  0
   -1.8460   -0.1440   28.5110 C   0  0  0  0  0  0  0  0  0  0  0  0
   -0.6630   -0.0530   27.7800 C   0  0  0  0  0  0  0  0  0  0  0  0
    3.5030    1.0350   25.4040 C   0  0  0  0  0  0  0  0  0  0  0  0
    0.1500    1.0640   27.9280 C   0  0  0  0  0  0  0  0  0  0  0  0
   -2.0740    0.7210   29.5620 C   0  0  0  0  0  0  0  0  0  0  0  0
  1  3  2  0  0  0  0
  1 10  1  0  0  0  0
  2  5  2  0  0  0  0
  2  7  1  0  0  0  0
  3  5  1  0  0  0  0
  4  6  2  0  0  0  0
  4 12  1  0  0  0  0
  5 11  1  0  0  0  0
  6 11  1  0  0  0  0
  7 10  2  0  0  0  0
  8  9  1  0  0  0  0
  8 12  2  0  0  0  0
  9 11  2  0  0  0  0
M  END
>  <Original_Directory>
3dxl_A_rec_3dye_lnr_lig_tt_docked_2_pocket10

>  <Original_Filename>
3dxl_A_rec_3dye_lnr_lig_tt_docked_2_pocket10_gen_sample_19.sdf

>  <Molecule_ID>
sample_19

>  <logS>
-2.52192

$$$$