/tmp/tmpnpll5kdq
  MOE2022           3D

 12 13  0  0  1  0  0  0  0  0999 V2000
   -0.9710   -1.3200   28.1390 C   0  0  0  0  0  0  0  0  0  0  0  0
    2.6910    1.3010   25.9660 C   0  0  3  0  0  0  0  0  0  0  0  0
    0.9920    2.3980   27.4290 C   0  0  0  0  0  0  0  0  0  0  0  0
    0.3790    1.1210   27.7970 C   0  0  0  0  0  0  0  0  0  0  0  0
   -1.1670    2.1550   29.3600 N   0  0  0  0  0  0  0  0  0  0  0  0
   -0.7200    1.0430   28.7010 C   0  0  0  0  0  0  0  0  0  0  0  0
    1.9440    2.4920   26.4880 C   0  0  0  0  0  0  0  0  0  0  0  0
    4.1330    1.3770   26.4360 C   0  0  0  0  0  0  0  0  0  0  0  0
    2.0980   -0.0390   26.3520 C   0  0  0  0  0  0  0  0  0  0  0  0
    0.1540   -1.2660   27.3340 C   0  0  0  0  0  0  0  0  0  0  0  0
    0.7830   -0.0470   27.0810 C   0  0  0  0  0  0  0  0  0  0  0  0
   -1.3550   -0.2030   28.8910 C   0  0  0  0  0  0  0  0  0  0  0  0
  1 10  2  0  0  0  0
  1 12  1  0  0  0  0
  2  7  1  0  0  0  0
  2  8  1  0  0  0  0
  2  9  1  0  0  0  0
  3  4  1  0  0  0  0
  3  7  2  0  0  0  0
  4  6  1  0  0  0  0
  4 11  2  0  0  0  0
  5  6  1  0  0  0  0
  6 12  2  0  0  0  0
  9 11  1  0  0  0  0
 10 11  1  0  0  0  0
M  END
>  <Original_Directory>
3dxl_A_rec_3dye_lnr_lig_tt_docked_2_pocket10

>  <Original_Filename>
3dxl_A_rec_3dye_lnr_lig_tt_docked_2_pocket10_gen_sample_15.sdf

>  <Molecule_ID>
sample_15

>  <logS>
-2.7930501

$$$$