/tmp/tmpo28e84zd
  MOE2022           3D

 12 13  0  0  0  0  0  0  0  0999 V2000
    0.3610    0.9420   27.9900 C   0  0  0  0  0  0  0  0  0  0  0  0
    1.6990    0.9820   25.8870 C   0  0  0  0  0  0  0  0  0  0  0  0
    2.8510    1.2470   27.9690 C   0  0  0  0  0  0  0  0  0  0  0  0
   -0.2320    2.0140   28.6410 C   0  0  0  0  0  0  0  0  0  0  0  0
   -1.8770    0.5360   29.5860 C   0  0  0  0  0  0  0  0  0  0  0  0
   -1.3650    1.8070   29.4160 C   0  0  0  0  0  0  0  0  0  0  0  0
    1.6640    1.0730   27.2750 C   0  0  0  0  0  0  0  0  0  0  0  0
   -1.3890   -0.5040   28.8130 C   0  0  0  0  0  0  0  0  0  0  0  0
   -0.1940   -0.3300   28.1290 C   0  0  0  0  0  0  0  0  0  0  0  0
    4.0360    1.5130   25.8990 C   0  0  0  0  0  0  0  0  0  0  0  0
    4.0450    1.3840   27.2760 C   0  0  0  0  0  0  0  0  0  0  0  0
    2.8650    1.2740   25.1940 C   0  0  0  0  0  0  0  0  0  0  0  0
  1  4  1  0  0  0  0
  1  7  1  0  0  0  0
  1  9  2  0  0  0  0
  2  7  1  0  0  0  0
  2 12  2  0  0  0  0
  3  7  2  0  0  0  0
  3 11  1  0  0  0  0
  4  6  2  0  0  0  0
  5  6  1  0  0  0  0
  5  8  2  0  0  0  0
  8  9  1  0  0  0  0
 10 11  2  0  0  0  0
 10 12  1  0  0  0  0
M  END
>  <Original_Directory>
3dxl_A_rec_3dye_lnr_lig_tt_docked_2_pocket10

>  <Original_Filename>
3dxl_A_rec_3dye_lnr_lig_tt_docked_2_pocket10_gen_sample_11.sdf

>  <Molecule_ID>
sample_11

>  <logS>
-3.81126

$$$$