
  MOE2022           3D

  7  7  0  0  0  0  0  0  0  0999 V2000
  -18.0320   16.3910   29.5340 C   0  0  0  0  0  0  0  0  0  0  0  0
  -20.7810   16.2080   29.4230 C   0  0  0  0  0  0  0  0  0  0  0  0
  -20.0850   15.5250   30.4140 C   0  0  0  0  0  0  0  0  0  0  0  0
  -22.1400   16.1520   29.4360 O   0  0  0  0  0  0  0  0  0  0  0  0
  -18.7100   15.5980   30.4480 C   0  0  0  0  0  0  0  0  0  0  0  0
  -20.1170   17.0800   28.5840 C   0  0  0  0  0  0  0  0  0  0  0  0
  -18.7350   17.0730   28.5570 C   0  0  0  0  0  0  0  0  0  0  0  0
  1  5  2  0  0  0  0
  1  7  1  0  0  0  0
  2  3  2  0  0  0  0
  2  4  1  0  0  0  0
  2  6  1  0  0  0  0
  3  5  1  0  0  0  0
  6  7  2  0  0  0  0
M  END
>  <Original_Directory>
1xgj_A_rec_2hdu_f12_lig_tt_min_0_pocket10

>  <Original_Filename>
1xgj_A_rec_2hdu_f12_lig_tt_min_0_pocket10_gen_sample_17.sdf

>  <Molecule_ID>
sample_17

>  <logS>
-1.02293

$$$$