/tmp/tmpcdngi7z6
  MOE2022           3D

 25 30  0  0  1  0  0  0  0  0999 V2000
   82.2930  -44.2260   23.5280 C   0  0  0  0  0  0  0  0  0  0  0  0
   80.8900  -45.7150   19.4960 C   0  0  2  0  0  0  0  0  0  0  0  0
   82.9950  -45.3250   22.8810 C   0  0  1  0  0  0  0  0  0  0  0  0
   81.4360  -46.9270   17.7200 C   0  0  3  0  0  0  0  0  0  0  0  0
   86.4090  -45.5150   25.6870 O   0  0  0  0  0  0  0  0  0  0  0  0
   85.3840  -47.6260   25.3470 C   0  0  0  0  0  0  0  0  0  0  0  0
   79.9550  -45.1390   18.4110 C   0  0  3  0  0  0  0  0  0  0  0  0
   80.3990  -45.9180   17.1770 C   0  0  0  0  0  0  0  0  0  0  0  0
   81.9050  -45.8810   22.1640 N   0  0  0  0  0  0  0  0  0  0  0  0
   81.4170  -43.7550   22.6110 N   0  0  0  0  0  0  0  0  0  0  0  0
   82.8520  -43.6350   24.6070 N   0  0  0  0  0  0  0  0  0  0  0  0
   84.1150  -44.8060   21.9590 C   0  0  0  0  0  0  0  0  0  0  0  0
   81.0040  -44.6260   20.4630 N   0  0  0  0  0  0  0  0  0  0  0  0
   80.2670  -43.6370   18.4210 C   0  0  0  0  0  0  0  0  0  0  0  0
   85.3140  -46.2340   25.4040 C   0  0  0  0  0  0  0  0  0  0  0  0
   84.3900  -48.3340   24.6610 C   0  0  0  0  0  0  0  0  0  0  0  0
   83.4680  -47.6300   23.8920 C   0  0  0  0  0  0  0  0  0  0  0  0
   80.7180  -43.3130   19.8480 C   0  0  0  0  0  0  0  0  0  0  0  0
   83.6920  -44.3470   25.3760 C   0  0  0  0  0  0  0  0  0  0  0  0
   81.1940  -44.7990   21.7980 C   0  0  0  0  0  0  0  0  0  0  0  0
   84.1790  -45.5830   24.9320 C   0  0  0  0  0  0  0  0  0  0  0  0
   82.1720  -46.0490   18.7410 C   0  0  0  0  0  0  0  0  0  0  0  0
   80.6680  -47.9010   18.6160 C   0  0  0  0  0  0  0  0  0  0  0  0
   80.2970  -47.0870   19.8550 C   0  0  0  0  0  0  0  0  0  0  0  0
   83.4840  -46.2400   23.9080 C   0  0  0  0  0  0  0  0  0  0  0  0
  1  3  1  0  0  0  0
  1 10  2  0  0  0  0
  1 11  1  0  0  0  0
  2  7  1  0  0  0  0
  2 13  1  0  0  0  0
  2 22  1  0  0  0  0
  2 24  1  0  0  0  0
  3  9  1  0  0  0  0
  3 12  1  0  0  0  0
  3 25  1  0  0  0  0
  4  8  1  0  0  0  0
  4 22  1  0  0  0  0
  4 23  1  0  0  0  0
  5 15  1  0  0  0  0
  6 15  2  0  0  0  0
  6 16  1  0  0  0  0
  7  8  1  0  0  0  0
  7 14  1  0  0  0  0
  9 20  2  0  0  0  0
 10 20  1  0  0  0  0
 11 19  2  0  0  0  0
 13 18  1  0  0  0  0
 13 20  1  0  0  0  0
 14 18  1  0  0  0  0
 15 21  1  0  0  0  0
 16 17  2  0  0  0  0
 17 25  1  0  0  0  0
 19 21  1  0  0  0  0
 21 25  2  0  0  0  0
 23 24  1  0  0  0  0
M  END
>  <Original_Directory>
2wtc_A_rec_2wtd_zzk_lig_tt_docked_0_pocket10

>  <Original_Filename>
2wtc_A_rec_2wtd_zzk_lig_tt_docked_0_pocket10_gen_sample_7.sdf

>  <Molecule_ID>
sample_7

>  <logS>
-4.0296798

$$$$