/tmp/tmp9a64rho4
  MOE2022           3D

 15 17  0  0  0  0  0  0  0  0999 V2000
  -26.9430  -16.4920  -22.2290 C   0  0  0  0  0  0  0  0  0  0  0  0
  -25.5060  -10.5430  -22.2790 C   0  0  0  0  0  0  0  0  0  0  0  0
  -26.5390  -17.7720  -22.5400 O   0  0  0  0  0  0  0  0  0  0  0  0
  -26.0860  -13.9520  -22.1040 C   0  0  0  0  0  0  0  0  0  0  0  0
  -24.2200  -10.9700  -22.5670 C   0  0  0  0  0  0  0  0  0  0  0  0
  -28.0280  -13.1860  -23.3250 C   0  0  0  0  0  0  0  0  0  0  0  0
  -27.6700  -11.8930  -22.8770 C   0  0  0  0  0  0  0  0  0  0  0  0
  -27.1590  -14.2370  -22.9850 C   0  0  0  0  0  0  0  0  0  0  0  0
  -26.3160  -11.6570  -22.6100 C   0  0  0  0  0  0  0  0  0  0  0  0
  -26.9420  -16.0600  -24.5660 O   0  0  0  0  0  0  0  0  0  0  0  0
  -25.4850  -12.7500  -22.3990 C   0  0  0  0  0  0  0  0  0  0  0  0
  -27.1890  -15.6060  -23.2970 C   0  0  0  0  0  0  0  0  0  0  0  0
  -26.5420  -15.9940  -20.9810 C   0  0  0  0  0  0  0  0  0  0  0  0
  -24.1970  -12.3860  -22.6060 O   0  0  0  0  0  0  0  0  0  0  0  0
  -26.0430  -14.6970  -20.9140 C   0  0  0  0  0  0  0  0  0  0  0  0
  1  3  1  0  0  0  0
  1 12  2  0  0  0  0
  1 13  1  0  0  0  0
  2  5  1  0  0  0  0
  2  9  1  0  0  0  0
  4  8  1  0  0  0  0
  4 11  2  0  0  0  0
  4 15  1  0  0  0  0
  5 14  1  0  0  0  0
  6  7  1  0  0  0  0
  6  8  2  0  0  0  0
  7  9  2  0  0  0  0
  8 12  1  0  0  0  0
  9 11  1  0  0  0  0
 10 12  1  0  0  0  0
 11 14  1  0  0  0  0
 13 15  2  0  0  0  0
M  END
>  <Original_Directory>
1p60_A_rec_2noa_3tc_lig_tt_docked_0_pocket10

>  <Original_Filename>
1p60_A_rec_2noa_3tc_lig_tt_docked_0_pocket10_gen_sample_1.sdf

>  <Molecule_ID>
sample_1

>  <logS>
-2.7731099

$$$$