/tmp/tmpktn3ehex
  MOE2022           3D

 15 16  0  0  1  0  0  0  0  0999 V2000
  -26.6500  -17.9950  -21.4790 O   0  0  0  0  0  0  0  0  0  0  0  0
  -25.0000  -11.0350  -22.0040 C   0  0  0  0  0  0  0  0  0  0  0  0
  -28.0460  -12.6230  -22.7280 O   0  0  0  0  0  0  0  0  0  0  0  0
  -26.0650  -16.2050  -22.9190 C   0  0  0  0  0  0  0  0  0  0  0  0
  -28.3860  -16.9500  -22.5730 N   0  0  0  0  0  0  0  0  0  0  0  0
  -26.0940  -13.7580  -21.9730 C   0  0  1  0  0  0  0  0  0  0  0  0
  -26.3210  -11.2610  -22.2790 N   0  0  0  0  0  0  0  0  0  0  0  0
  -24.5000   -9.9120  -22.0890 O   0  0  0  0  0  0  0  0  0  0  0  0
  -26.0820  -14.7080  -23.1750 C   0  0  0  0  0  0  0  0  0  0  0  0
  -24.6400  -13.4410  -21.5670 C   0  0  0  0  0  0  0  0  0  0  0  0
  -26.8860  -12.4990  -22.3730 C   0  0  0  0  0  0  0  0  0  0  0  0
  -26.8220  -14.3780  -20.7870 C   0  0  0  0  0  0  0  0  0  0  0  0
  -24.3550  -12.0300  -21.3610 N   0  0  0  0  0  0  0  0  0  0  0  0
  -27.1160  -16.7340  -21.9460 C   0  0  1  0  0  0  0  0  0  0  0  0
  -27.3100  -15.8070  -20.7530 C   0  0  0  0  0  0  0  0  0  0  0  0
  1 14  1  0  0  0  0
  2  7  1  0  0  0  0
  2  8  2  0  0  0  0
  2 13  1  0  0  0  0
  3 11  2  0  0  0  0
  4  9  1  0  0  0  0
  4 14  1  0  0  0  0
  5 14  1  0  0  0  0
  6  9  1  0  0  0  0
  6 10  1  0  0  0  0
  6 11  1  0  0  0  0
  6 12  1  0  0  0  0
  7 11  1  0  0  0  0
 10 13  1  0  0  0  0
 12 15  2  0  0  0  0
 14 15  1  0  0  0  0
M  END
>  <Original_Directory>
1p60_A_rec_2noa_3tc_lig_tt_docked_0_pocket10

>  <Original_Filename>
1p60_A_rec_2noa_3tc_lig_tt_docked_0_pocket10_gen_sample_13.sdf

>  <Molecule_ID>
sample_13

>  <logS>
-0.37450001

$$$$