/tmp/tmp4rjuuirl
  MOE2022           3D

 12 13  0  0  1  0  0  0  0  0999 V2000
  -15.3560  -12.5550   -8.1300 C   0  0  0  0  0  0  0  0  0  0  0  0
  -11.3320  -10.1210   -8.3380 O   0  0  0  0  0  0  0  0  0  0  0  0
  -12.8410   -8.8030   -9.6610 C   0  0  0  0  0  0  0  0  0  0  0  0
  -13.3150  -11.6910   -7.1300 C   0  0  0  0  0  0  0  0  0  0  0  0
  -12.1350  -10.9820  -10.4500 C   0  0  0  0  0  0  0  0  0  0  0  0
  -14.7730  -11.5230   -9.0860 C   0  0  0  0  0  0  0  0  0  0  0  0
  -10.8380   -7.8060  -10.6200 O   0  0  0  0  0  0  0  0  0  0  0  0
  -11.5730   -9.9690  -11.4420 C   0  0  0  0  0  0  0  0  0  0  0  0
  -14.6640  -12.3190   -6.7830 C   0  0  0  0  0  0  0  0  0  0  0  0
  -11.9790   -8.5960  -10.9050 C   0  0  3  0  0  0  0  0  0  0  0  0
  -12.4880  -10.2040   -9.1810 C   0  0  1  0  0  0  0  0  0  0  0  0
  -13.6140  -10.8540   -8.3790 C   0  0  0  0  0  0  0  0  0  0  0  0
  1  6  1  0  0  0  0
  1  9  1  0  0  0  0
  2 11  1  0  0  0  0
  3 10  1  0  0  0  0
  3 11  1  0  0  0  0
  4  9  1  0  0  0  0
  4 12  1  0  0  0  0
  5  8  1  0  0  0  0
  5 11  1  0  0  0  0
  6 12  1  0  0  0  0
  7 10  1  0  0  0  0
  8 10  1  0  0  0  0
 11 12  1  0  0  0  0
M  END
>  <Original_Directory>
3h7j_A_rec_3h9a_ppy_lig_tt_docked_2_pocket10

>  <Original_Filename>
3h7j_A_rec_3h9a_ppy_lig_tt_docked_2_pocket10_gen_sample_5.sdf

>  <Molecule_ID>
sample_5

>  <logS>
-1.59876

$$$$