/tmp/tmprm_9jpob
  MOE2022           3D

 32 37  0  0  1  0  0  0  0  0999 V2000
   -5.8230  -27.7260    3.9880 C   0  0  0  0  0  0  0  0  0  0  0  0
   -5.4310  -31.5990    6.0960 C   0  0  0  0  0  0  0  0  0  0  0  0
   -9.3840  -35.4900    2.1410 C   0  0  3  0  0  0  0  0  0  0  0  0
   -7.1970  -31.7010    4.4880 C   0  0  0  0  0  0  0  0  0  0  0  0
   -6.7190  -26.5380    3.8260 C   0  0  0  0  0  0  0  0  0  0  0  0
   -8.1380  -33.8430    3.7130 C   0  0  0  0  0  0  0  0  0  0  0  0
   -3.4380  -28.4340    4.8360 C   0  0  0  0  0  0  0  0  0  0  0  0
   -5.9560  -33.6930    5.0080 C   0  0  0  0  0  0  0  0  0  0  0  0
   -4.0150  -27.8400    6.9440 N   0  0  0  0  0  0  0  0  0  0  0  0
   -5.1530  -32.9420    5.8610 C   0  0  0  0  0  0  0  0  0  0  0  0
  -10.6520  -34.6440    1.9870 C   0  0  0  0  0  0  0  0  0  0  0  0
   -2.6320  -27.9360    6.8630 C   0  0  0  0  0  0  0  0  0  0  0  0
   -9.8050  -36.9520    2.3240 C   0  0  0  0  0  0  0  0  0  0  0  0
   -5.7750  -28.4670    5.1760 C   0  0  0  0  0  0  0  0  0  0  0  0
   -6.7710  -29.5130    5.5790 C   0  0  0  0  0  0  0  0  0  0  0  0
   -3.6720  -28.4040    3.4610 C   0  0  0  0  0  0  0  0  0  0  0  0
  -11.7890  -36.3200    3.6320 C   0  0  0  0  0  0  0  0  0  0  0  0
   -4.5170  -28.2440    5.7440 C   0  0  0  0  0  0  0  0  0  0  0  0
   -2.3150  -28.5970    5.6540 C   0  0  0  0  0  0  0  0  0  0  0  0
   -1.5900  -27.4310    7.6360 C   0  0  0  0  0  0  0  0  0  0  0  0
   -1.1000  -29.2740    5.5450 C   0  0  0  0  0  0  0  0  0  0  0  0
  -10.3960  -36.9350    3.7620 C   0  0  3  0  0  0  0  0  0  0  0  0
   -0.3480  -28.0560    7.4940 C   0  0  0  0  0  0  0  0  0  0  0  0
   -8.6810  -35.2250    3.4790 C   0  0  3  0  0  0  0  0  0  0  0  0
   -0.1310  -29.0110    6.5160 C   0  0  0  0  0  0  0  0  0  0  0  0
   -6.4430  -30.9620    5.3850 C   0  0  0  0  0  0  0  0  0  0  0  0
   -7.0430  -33.0800    4.4030 C   0  0  0  0  0  0  0  0  0  0  0  0
   -4.8890  -28.0240    3.0300 N   0  0  0  0  0  0  0  0  0  0  0  0
  -11.8650  -35.0500    2.8050 C   0  0  0  0  0  0  0  0  0  0  0  0
   -7.2510  -26.0520    4.8350 O   0  0  0  0  0  0  0  0  0  0  0  0
   -9.4940  -35.9680    4.5410 C   0  0  0  0  0  0  0  0  0  0  0  0
   -6.8210  -26.0260    2.6930 O   0  0  0  0  0  0  0  0  0  0  0  0
  1  5  1  0  0  0  0
  1 14  1  0  0  0  0
  1 28  2  0  0  0  0
  2 10  2  0  0  0  0
  2 26  1  0  0  0  0
  3 11  1  0  0  0  0
  3 13  1  0  0  0  0
  3 24  1  0  0  0  0
  4 26  2  0  0  0  0
  4 27  1  0  0  0  0
  5 30  1  0  0  0  0
  5 32  2  0  0  0  0
  6 24  1  0  0  0  0
  6 27  1  0  0  0  0
  7 16  2  0  0  0  0
  7 18  1  0  0  0  0
  7 19  1  0  0  0  0
  8 10  1  0  0  0  0
  8 27  2  0  0  0  0
  9 12  1  0  0  0  0
  9 18  1  0  0  0  0
 11 29  1  0  0  0  0
 12 19  2  0  0  0  0
 12 20  1  0  0  0  0
 13 22  1  0  0  0  0
 14 15  1  0  0  0  0
 14 18  2  0  0  0  0
 15 26  1  0  0  0  0
 16 28  1  0  0  0  0
 17 22  1  0  0  0  0
 17 29  2  0  0  0  0
 19 21  1  0  0  0  0
 20 23  2  0  0  0  0
 21 25  2  0  0  0  0
 22 31  1  0  0  0  0
 23 25  1  0  0  0  0
 24 31  1  0  0  0  0
M  END
>  <Original_Directory>
3sr5_X_rec_3sru_q26_lig_tt_docked_7_pocket10

>  <Original_Filename>
3sr5_X_rec_3sru_q26_lig_tt_docked_7_pocket10_gen_sample_10.sdf

>  <Molecule_ID>
sample_10

>  <logS>
-7.4158502

$$$$