/tmp/tmpu4xgy9q9
  MOE2022           3D

 17 18  0  0  0  0  0  0  0  0999 V2000
  -32.7440    9.6510   -5.9520 C   0  0  0  0  0  0  0  0  0  0  0  0
  -34.6430   10.0000   -7.4030 C   0  0  0  0  0  0  0  0  0  0  0  0
  -34.6620   10.2580   -4.4820 C   0  0  0  0  0  0  0  0  0  0  0  0
  -33.3610    9.8930   -4.7530 C   0  0  0  0  0  0  0  0  0  0  0  0
  -35.7120    9.6470   -6.6020 C   0  0  0  0  0  0  0  0  0  0  0  0
  -34.9650   10.9570   -3.1710 C   0  0  0  0  0  0  0  0  0  0  0  0
  -35.3480    7.0210   -1.0680 C   0  0  0  0  0  0  0  0  0  0  0  0
  -32.7560   10.1500   -1.7340 O   0  0  0  0  0  0  0  0  0  0  0  0
  -33.8950    9.6140   -1.3340 C   0  0  0  0  0  0  0  0  0  0  0  0
  -36.1600    9.0800   -2.0670 C   0  0  0  0  0  0  0  0  0  0  0  0
  -34.5480    7.6040   -0.1060 C   0  0  0  0  0  0  0  0  0  0  0  0
  -33.3230    9.6310   -7.1930 C   0  0  0  0  0  0  0  0  0  0  0  0
  -33.9270    8.8400   -0.1820 C   0  0  0  0  0  0  0  0  0  0  0  0
  -34.8730   10.9520   -8.3540 O   0  0  0  0  0  0  0  0  0  0  0  0
  -35.7550    9.8580   -5.2440 C   0  0  0  0  0  0  0  0  0  0  0  0
  -35.0170    9.8530   -2.1400 C   0  0  0  0  0  0  0  0  0  0  0  0
  -36.2660    7.7420   -1.8060 C   0  0  0  0  0  0  0  0  0  0  0  0
  1  4  1  0  0  0  0
  1 12  2  0  0  0  0
  2  5  2  0  0  0  0
  2 12  1  0  0  0  0
  2 14  1  0  0  0  0
  3  4  1  0  0  0  0
  3  6  1  0  0  0  0
  3 15  2  0  0  0  0
  5 15  1  0  0  0  0
  6 16  1  0  0  0  0
  7 11  1  0  0  0  0
  7 17  2  0  0  0  0
  8  9  1  0  0  0  0
  9 13  2  0  0  0  0
  9 16  1  0  0  0  0
 10 16  2  0  0  0  0
 10 17  1  0  0  0  0
 11 13  1  0  0  0  0
M  END
>  <Original_Directory>
4mcd_A_rec_4ypw_4fd_lig_tt_docked_0_pocket10

>  <Original_Filename>
4mcd_A_rec_4ypw_4fd_lig_tt_docked_0_pocket10_gen_sample_9.sdf

>  <Molecule_ID>
sample_9

>  <logS>
-2.2496901

$$$$