/tmp/tmpx1qki0x2
  MOE2022           3D

 13 13  0  0  1  0  0  0  0  0999 V2000
   87.4970  122.5990  135.6570 C   0  0  0  0  0  0  0  0  0  0  0  0
   86.9960  120.5380  134.5200 C   0  0  0  0  0  0  0  0  0  0  0  0
   85.1350  120.5350  131.0980 C   0  0  0  0  0  0  0  0  0  0  0  0
   85.6130  122.4230  129.0520 O   0  0  0  0  0  0  0  0  0  0  0  0
   86.7940  122.6060  133.3700 C   0  0  0  0  0  0  0  0  0  0  0  0
   86.9550  121.8330  129.4710 P   0  0  0  0  0  0  0  0  0  0  0  0
   87.3020  121.2210  135.6940 C   0  0  0  0  0  0  0  0  0  0  0  0
   86.5690  120.9800  130.9330 C   0  0  3  0  0  0  0  0  0  0  0  0
   87.0720  123.3080  134.5410 C   0  0  0  0  0  0  0  0  0  0  0  0
   87.4650  120.8060  128.5110 O   0  0  0  0  0  0  0  0  0  0  0  0
   87.0280  121.2410  133.3250 C   0  0  0  0  0  0  0  0  0  0  0  0
   87.9010  122.9340  129.7800 O   0  0  0  0  0  0  0  0  0  0  0  0
   87.4340  120.6040  132.0320 C   0  0  0  0  0  0  0  0  0  0  0  0
  1  7  2  0  0  0  0
  1  9  1  0  0  0  0
  2  7  1  0  0  0  0
  2 11  2  0  0  0  0
  3  8  1  0  0  0  0
  4  6  1  0  0  0  0
  5  9  2  0  0  0  0
  5 11  1  0  0  0  0
  6  8  1  0  0  0  0
  6 10  2  0  0  0  0
  6 12  1  0  0  0  0
  8 13  1  0  0  0  0
 11 13  1  0  0  0  0
M  END
>  <Original_Directory>
4r5t_A_rec_4k5m_1ov_lig_tt_min_0_pocket10

>  <Original_Filename>
4r5t_A_rec_4k5m_1ov_lig_tt_min_0_pocket10_gen_sample_1.sdf

>  <Molecule_ID>
sample_1

>  <logS>
-1.0776

$$$$