/tmp/tmpdjmf1k9m
  MOE2022           3D

 13 14  0  0  1  0  0  0  0  0999 V2000
   87.9790  122.6770  133.1370 O   0  0  0  0  0  0  0  0  0  0  0  0
   87.7000  121.1370  131.3300 C   0  0  0  0  0  0  0  0  0  0  0  0
   86.3760  121.3900  130.9570 C   0  0  0  0  0  0  0  0  0  0  0  0
   88.4630  120.3570  133.6900 C   0  0  0  0  0  0  0  0  0  0  0  0
   88.6350  120.7950  130.3490 C   0  0  0  0  0  0  0  0  0  0  0  0
   87.5670  120.4900  134.9160 C   0  0  0  0  0  0  0  0  0  0  0  0
   87.6560  121.8890  135.3790 N   0  0  0  0  0  0  0  0  0  0  0  0
   88.2750  120.9390  129.0120 C   0  0  0  0  0  0  0  0  0  0  0  0
   85.1990  122.5740  129.3620 O   0  0  0  0  0  0  0  0  0  0  0  0
   87.2220  122.8230  134.3270 C   0  0  0  0  0  0  0  0  0  0  0  0
   87.1670  121.7060  128.7160 N   0  0  0  0  0  0  0  0  0  0  0  0
   88.1020  121.4000  132.6790 C   0  0  3  0  0  0  0  0  0  0  0  0
   86.1460  121.7710  129.6340 C   0  0  0  0  0  0  0  0  0  0  0  0
  1 10  1  0  0  0  0
  1 12  1  0  0  0  0
  2  3  1  0  0  0  0
  2  5  2  0  0  0  0
  2 12  1  0  0  0  0
  3 13  1  0  0  0  0
  4  6  1  0  0  0  0
  4 12  1  0  0  0  0
  5  8  1  0  0  0  0
  6  7  1  0  0  0  0
  7 10  1  0  0  0  0
  8 11  1  0  0  0  0
  9 13  2  0  0  0  0
 11 13  1  0  0  0  0
M  END
>  <Original_Directory>
4r5t_A_rec_4k5m_1ov_lig_tt_min_0_pocket10

>  <Original_Filename>
4r5t_A_rec_4k5m_1ov_lig_tt_min_0_pocket10_gen_sample_5.sdf

>  <Molecule_ID>
sample_5

>  <logS>
-0.27497

$$$$