/tmp/tmp5yyme0lg
  MOE2022           3D

 13 14  0  0  1  0  0  0  0  0999 V2000
   89.1780  120.6580  129.4380 C   0  0  0  0  0  0  0  0  0  0  0  0
   86.6380  121.7780  133.4290 C   0  0  0  0  0  0  0  0  0  0  0  0
   87.8500  121.3190  132.9510 C   0  0  0  0  0  0  0  0  0  0  0  0
   88.1650  121.2580  131.5230 C   0  0  3  0  0  0  0  0  0  0  0  0
   88.5380  120.8820  135.2240 C   0  0  0  0  0  0  0  0  0  0  0  0
   88.8120  120.8970  133.8650 C   0  0  0  0  0  0  0  0  0  0  0  0
   89.1950  120.3740  130.9300 C   0  0  0  0  0  0  0  0  0  0  0  0
   87.7280  122.1710  128.1490 O   0  0  0  0  0  0  0  0  0  0  0  0
   87.3290  121.8770  130.4620 C   0  0  0  0  0  0  0  0  0  0  0  0
   86.9270  120.1500  128.8710 O   0  0  0  0  0  0  0  0  0  0  0  0
   87.4000  121.5060  135.6910 C   0  0  0  0  0  0  0  0  0  0  0  0
   87.7760  121.2170  129.1710 C   0  0  0  0  0  0  0  0  0  0  0  0
   86.4050  121.8420  134.7930 C   0  0  0  0  0  0  0  0  0  0  0  0
  1  7  1  0  0  0  0
  1 12  1  0  0  0  0
  2  3  2  0  0  0  0
  2 13  1  0  0  0  0
  3  4  1  0  0  0  0
  3  6  1  0  0  0  0
  4  7  1  0  0  0  0
  4  9  1  0  0  0  0
  5  6  2  0  0  0  0
  5 11  1  0  0  0  0
  8 12  1  0  0  0  0
  9 12  1  0  0  0  0
 10 12  1  0  0  0  0
 11 13  2  0  0  0  0
M  END
>  <Original_Directory>
4r5t_A_rec_4k5m_1ov_lig_tt_min_0_pocket10

>  <Original_Filename>
4r5t_A_rec_4k5m_1ov_lig_tt_min_0_pocket10_gen_sample_13.sdf

>  <Molecule_ID>
sample_13

>  <logS>
-1.6995

$$$$