/tmp/tmp9dngaprb
  MOE2022           3D

 22 23  0  0  0  0  0  0  0  0999 V2000
   18.4710   38.8370   37.0280 N   0  0  0  0  0  0  0  0  0  0  0  0
   13.0700   41.7250   33.8940 C   0  0  0  0  0  0  0  0  0  0  0  0
   18.5830   33.9810   37.9740 P   0  0  0  0  0  0  0  0  0  0  0  0
   17.2700   41.4360   34.1170 O   0  0  0  0  0  0  0  0  0  0  0  0
   19.3820   35.3650   37.6340 N   0  0  0  0  0  0  0  0  0  0  0  0
   13.1380   40.4670   35.9480 O   0  0  0  0  0  0  0  0  0  0  0  0
   15.0400   40.0790   37.0170 O   0  0  0  0  0  0  0  0  0  0  0  0
   14.4800   40.4340   36.0000 C   0  0  0  0  0  0  0  0  0  0  0  0
   17.0260   39.7720   35.5830 O   0  0  0  0  0  0  0  0  0  0  0  0
   17.3500   34.3370   38.6870 O   0  0  0  0  0  0  0  0  0  0  0  0
   11.4860   40.0720   34.4340 O   0  0  0  0  0  0  0  0  0  0  0  0
   17.6740   37.5240   35.2270 C   0  0  0  0  0  0  0  0  0  0  0  0
   18.1420   36.3670   35.8400 C   0  0  0  0  0  0  0  0  0  0  0  0
   18.8140   36.4770   37.0470 C   0  0  0  0  0  0  0  0  0  0  0  0
   19.4740   33.1460   38.8690 O   0  0  0  0  0  0  0  0  0  0  0  0
   16.5690   40.7220   34.8140 C   0  0  0  0  0  0  0  0  0  0  0  0
   17.7520   38.7310   35.8970 C   0  0  0  0  0  0  0  0  0  0  0  0
   18.9460   37.7320   37.6300 C   0  0  0  0  0  0  0  0  0  0  0  0
   15.1970   40.9130   34.9000 N   0  0  0  0  0  0  0  0  0  0  0  0
   12.4490   40.6890   34.7890 C   0  0  0  0  0  0  0  0  0  0  0  0
   14.5410   41.4110   33.6920 C   0  0  0  0  0  0  0  0  0  0  0  0
   18.2460   33.2990   36.6830 O   0  0  0  0  0  0  0  0  0  0  0  0
  1 17  2  0  0  0  0
  1 18  1  0  0  0  0
  2 20  1  0  0  0  0
  2 21  1  0  0  0  0
  3  5  1  0  0  0  0
  3 10  1  0  0  0  0
  3 15  1  0  0  0  0
  3 22  2  0  0  0  0
  4 16  2  0  0  0  0
  5 14  1  0  0  0  0
  6  8  1  0  0  0  0
  6 20  1  0  0  0  0
  7  8  2  0  0  0  0
  8 19  1  0  0  0  0
  9 16  1  0  0  0  0
  9 17  1  0  0  0  0
 11 20  2  0  0  0  0
 12 13  2  0  0  0  0
 12 17  1  0  0  0  0
 13 14  1  0  0  0  0
 14 18  2  0  0  0  0
 16 19  1  0  0  0  0
 19 21  1  0  0  0  0
M  END
>  <Original_Directory>
3ltp_A_rec_3lht_bmq_lig_tt_docked_2_pocket10

>  <Original_Filename>
3ltp_A_rec_3lht_bmq_lig_tt_docked_2_pocket10_gen_sample_18.sdf

>  <Molecule_ID>
sample_18

>  <logS>
-0.77908999

$$$$