/tmp/tmpjk0on95n
  MOE2022           3D

  6  6  0  0  0  0  0  0  0  0999 V2000
   31.6940  -34.9120   -2.3550 C   0  0  0  0  0  0  0  0  0  0  0  0
   31.4560  -36.1730   -1.5930 C   0  0  0  0  0  0  0  0  0  0  0  0
   31.6290  -35.2740   -3.8190 C   0  0  0  0  0  0  0  0  0  0  0  0
   30.8550  -37.1910   -2.4940 C   0  0  0  0  0  0  0  0  0  0  0  0
   31.5370  -36.2560   -0.3770 O   0  0  0  0  0  0  0  0  0  0  0  0
   31.3120  -36.7570   -3.8820 C   0  0  0  0  0  0  0  0  0  0  0  0
  1  2  1  0  0  0  0
  1  3  1  0  0  0  0
  2  4  1  0  0  0  0
  2  5  2  0  0  0  0
  3  6  1  0  0  0  0
  4  6  1  0  0  0  0
M  END
>  <Original_Directory>
2v5c_A_rec_2cbi_gbl_lig_tt_docked_2_pocket10

>  <Original_Filename>
2v5c_A_rec_2cbi_gbl_lig_tt_docked_2_pocket10_gen_sample_13.sdf

>  <Molecule_ID>
sample_13

>  <logS>
-0.23811001

$$$$