/tmp/tmpobi0cwqz
  MOE2022           3D

 33 40  0  0  1  0  0  0  0  0999 V2000
   44.7260   74.1830   87.4670 C   0  0  0  0  0  0  0  0  0  0  0  0
   41.3530   79.6740   86.4740 C   0  0  0  0  0  0  0  0  0  0  0  0
   41.0960   80.4920   90.7880 C   0  0  0  0  0  0  0  0  0  0  0  0
   39.8080   77.9760   83.6680 O   0  0  0  0  0  0  0  0  0  0  0  0
   42.1160   77.3930   86.3800 C   0  0  0  0  0  0  0  0  0  0  0  0
   43.0170   76.2920   86.8390 C   0  0  3  0  0  0  0  0  0  0  0  0
   42.1030   76.3710   92.9270 C   0  0  0  0  0  0  0  0  0  0  0  0
   41.2370   80.7930   87.2500 N   0  0  0  0  0  0  0  0  0  0  0  0
   42.2450   77.0550   91.7020 C   0  0  0  0  0  0  0  0  0  0  0  0
   41.8250   78.3570   91.6260 C   0  0  0  0  0  0  0  0  0  0  0  0
   40.4250   79.3990   85.4710 C   0  0  0  0  0  0  0  0  0  0  0  0
   42.7920   76.3270   90.6270 C   0  0  0  0  0  0  0  0  0  0  0  0
   44.1770   74.4580   86.0800 C   0  0  0  0  0  0  0  0  0  0  0  0
   42.8600   79.8600   88.7380 C   0  0  0  0  0  0  0  0  0  0  0  0
   43.1860   75.9800   88.2920 C   0  0  0  0  0  0  0  0  0  0  0  0
   43.6960   75.3010   90.9280 C   0  0  0  0  0  0  0  0  0  0  0  0
   43.8030   74.8370   92.2370 C   0  0  0  0  0  0  0  0  0  0  0  0
   44.4610   74.7460   89.9050 C   0  0  0  0  0  0  0  0  0  0  0  0
   43.0290   75.3850   93.2450 C   0  0  0  0  0  0  0  0  0  0  0  0
   40.9930   76.5940   93.6680 N   0  0  0  0  0  0  0  0  0  0  0  0
   42.4380   76.5640   89.2970 C   0  0  0  0  0  0  0  0  0  0  0  0
   40.9950   81.1640   89.5790 C   0  0  0  0  0  0  0  0  0  0  0  0
   44.1300   74.9930   88.5860 C   0  0  0  0  0  0  0  0  0  0  0  0
   40.4490   78.1670   84.8420 C   0  0  0  0  0  0  0  0  0  0  0  0
   43.3500   79.1200   87.6540 C   0  0  0  0  0  0  0  0  0  0  0  0
   41.1440   77.1200   85.4360 C   0  0  0  0  0  0  0  0  0  0  0  0
   42.8080   74.9840   86.1710 N   0  0  0  0  0  0  0  0  0  0  0  0
   41.7450   80.6930   88.5030 C   0  0  0  0  0  0  0  0  0  0  0  0
   40.9640   75.7070   84.9640 C   0  0  0  0  0  0  0  0  0  0  0  0
   42.0730   79.4970   90.8990 C   0  0  3  0  0  0  0  0  0  0  0  0
   43.1940   79.6180   90.0750 C   0  0  0  0  0  0  0  0  0  0  0  0
   42.2380   75.0790   84.9240 O   0  0  0  0  0  0  0  0  0  0  0  0
   42.3070   78.7050   86.7970 C   0  0  0  0  0  0  0  0  0  0  0  0
  1 13  1  0  0  0  0
  1 23  1  0  0  0  0
  2  8  1  0  0  0  0
  2 11  1  0  0  0  0
  2 33  2  0  0  0  0
  3 22  2  0  0  0  0
  3 30  1  0  0  0  0
  4 24  1  0  0  0  0
  5  6  1  0  0  0  0
  5 26  2  0  0  0  0
  5 33  1  0  0  0  0
  6 15  1  0  0  0  0
  6 27  1  0  0  0  0
  7  9  1  0  0  0  0
  7 19  2  0  0  0  0
  7 20  1  0  0  0  0
  8 28  1  0  0  0  0
  9 10  1  0  0  0  0
  9 12  2  0  0  0  0
 10 30  1  0  0  0  0
 11 24  2  0  0  0  0
 12 16  1  0  0  0  0
 12 21  1  0  0  0  0
 13 27  1  0  0  0  0
 14 25  1  0  0  0  0
 14 28  2  0  0  0  0
 14 31  1  0  0  0  0
 15 21  2  0  0  0  0
 15 23  1  0  0  0  0
 16 17  2  0  0  0  0
 16 18  1  0  0  0  0
 17 19  1  0  0  0  0
 18 23  2  0  0  0  0
 22 28  1  0  0  0  0
 24 26  1  0  0  0  0
 25 33  1  0  0  0  0
 26 29  1  0  0  0  0
 27 32  1  0  0  0  0
 29 32  1  0  0  0  0
 30 31  1  0  0  0  0
M  END
>  <Original_Directory>
4xe0_A_rec_5t7f_76c_lig_tt_min_0_pocket10

>  <Original_Filename>
4xe0_A_rec_5t7f_76c_lig_tt_min_0_pocket10_gen_sample_3.sdf

>  <Molecule_ID>
sample_3

>  <logS>
-5.9366002

$$$$