/tmp/tmphsns5d_e
  MOE2022           3D

 19 23  0  0  1  0  0  0  0  0999 V2000
   21.9090  124.8750   42.7660 C   0  0  3  0  0  0  0  0  0  0  0  0
   24.7360  128.1220   39.9990 C   0  0  3  0  0  0  0  0  0  0  0  0
   23.7340  128.9870   40.1080 N   0  0  0  0  0  0  0  0  0  0  0  0
   20.9560  125.3060   45.4010 C   0  0  0  0  0  0  0  0  0  0  0  0
   21.1600  126.5160   44.4880 C   0  0  0  0  0  0  0  0  0  0  0  0
   24.6440  127.2050   40.9560 N   0  0  0  0  0  0  0  0  0  0  0  0
   19.5440  125.6530   42.8020 C   0  0  0  0  0  0  0  0  0  0  0  0
   26.1960  125.5060   41.0790 O   0  0  0  0  0  0  0  0  0  0  0  0
   25.1320  126.0340   41.3350 C   0  0  0  0  0  0  0  0  0  0  0  0
   20.3480  124.1610   44.5930 C   0  0  0  0  0  0  0  0  0  0  0  0
   23.1920  124.4350   42.0710 C   0  0  0  0  0  0  0  0  0  0  0  0
   20.4720  124.4780   43.0930 C   0  0  0  0  0  0  0  0  0  0  0  0
   19.8070  126.7600   43.8170 C   0  0  0  0  0  0  0  0  0  0  0  0
   22.1920  126.2430   43.3910 C   0  0  3  0  0  0  0  0  0  0  0  0
   23.3930  126.6680   42.6710 N   0  0  0  0  0  0  0  0  0  0  0  0
   22.8950  128.5410   41.1040 N   0  0  0  0  0  0  0  0  0  0  0  0
   23.5780  127.5650   41.6660 C   0  0  3  0  0  0  0  0  0  0  0  0
   24.2780  125.4560   42.4930 C   0  0  3  0  0  0  0  0  0  0  0  0
   25.7720  128.2060   39.1510 N   0  0  0  0  0  0  0  0  0  0  0  0
  1 11  1  0  0  0  0
  1 12  1  0  0  0  0
  1 14  1  0  0  0  0
  2  3  1  0  0  0  0
  2  6  1  0  0  0  0
  2 19  1  0  0  0  0
  3 16  1  0  0  0  0
  4  5  1  0  0  0  0
  4 10  1  0  0  0  0
  5 13  1  0  0  0  0
  5 14  1  0  0  0  0
  6  9  1  0  0  0  0
  6 17  1  0  0  0  0
  7 12  1  0  0  0  0
  7 13  1  0  0  0  0
  8  9  2  0  0  0  0
  9 18  1  0  0  0  0
 10 12  1  0  0  0  0
 11 18  1  0  0  0  0
 14 15  1  0  0  0  0
 15 17  1  0  0  0  0
 15 18  1  0  0  0  0
 16 17  1  0  0  0  0
M  END
>  <Original_Directory>
4ear_A_rec_2on6_imh_lig_tt_min_0_pocket10

>  <Original_Filename>
4ear_A_rec_2on6_imh_lig_tt_min_0_pocket10_gen_sample_5.sdf

>  <Molecule_ID>
sample_5

>  <logS>
-0.01095

$$$$