/tmp/tmpgekaq9da
  MOE2022           3D

 19 21  0  0  1  0  0  0  0  0999 V2000
   24.7360  125.3420   41.8600 C   0  0  0  0  0  0  0  0  0  0  0  0
   22.8420  126.6980   42.6950 O   0  0  0  0  0  0  0  0  0  0  0  0
   26.3390  126.8180   40.5270 C   0  0  3  0  0  0  0  0  0  0  0  0
   25.8900  125.4050   40.8680 C   0  0  0  0  0  0  0  0  0  0  0  0
   22.5220  127.7380   45.4100 O   0  0  0  0  0  0  0  0  0  0  0  0
   25.8120  127.8680   41.3490 C   0  0  0  0  0  0  0  0  0  0  0  0
   23.7660  128.4620   40.2250 C   0  0  0  0  0  0  0  0  0  0  0  0
   19.7260  125.3880   44.0650 C   0  0  0  0  0  0  0  0  0  0  0  0
   20.8020  124.8120   46.1450 C   0  0  0  0  0  0  0  0  0  0  0  0
   21.9940  126.2250   43.6120 C   0  0  0  0  0  0  0  0  0  0  0  0
   19.7370  125.0390   45.3620 N   0  0  0  0  0  0  0  0  0  0  0  0
   26.2190  127.0920   39.1350 C   0  0  0  0  0  0  0  0  0  0  0  0
   22.2070  126.4860   45.0350 C   0  0  0  0  0  0  0  0  0  0  0  0
   23.8550  126.5720   41.8840 C   0  0  3  0  0  0  0  0  0  0  0  0
   24.4230  128.8050   39.0470 C   0  0  0  0  0  0  0  0  0  0  0  0
   25.5770  128.1770   38.5910 C   0  0  0  0  0  0  0  0  0  0  0  0
   20.7460  125.6930   43.1860 C   0  0  0  0  0  0  0  0  0  0  0  0
   21.9740  125.5330   46.0250 C   0  0  0  0  0  0  0  0  0  0  0  0
   24.4030  127.7880   41.2520 C   0  0  3  0  0  0  0  0  0  0  0  0
  1  4  1  0  0  0  0
  1 14  1  0  0  0  0
  2 10  1  0  0  0  0
  2 14  1  0  0  0  0
  3  4  1  0  0  0  0
  3  6  1  0  0  0  0
  3 12  1  0  0  0  0
  5 13  1  0  0  0  0
  6 19  1  0  0  0  0
  7 15  1  0  0  0  0
  7 19  1  0  0  0  0
  8 11  1  0  0  0  0
  8 17  2  0  0  0  0
  9 11  1  0  0  0  0
  9 18  2  0  0  0  0
 10 13  2  0  0  0  0
 10 17  1  0  0  0  0
 12 16  1  0  0  0  0
 13 18  1  0  0  0  0
 14 19  1  0  0  0  0
 15 16  2  0  0  0  0
M  END
>  <Original_Directory>
4ear_A_rec_2on6_imh_lig_tt_min_0_pocket10

>  <Original_Filename>
4ear_A_rec_2on6_imh_lig_tt_min_0_pocket10_gen_sample_17.sdf

>  <Molecule_ID>
sample_17

>  <logS>
-2.26998

$$$$