/tmp/tmp6c6iy1ql
  MOE2022           3D

 29 34  0  0  1  0  0  0  0  0999 V2000
   22.9960   63.4220   20.7910 C   0  0  0  0  0  0  0  0  0  0  0  0
   20.1160   60.2240   22.9130 C   0  0  3  0  0  0  0  0  0  0  0  0
   24.1670   61.3870   21.3430 C   0  0  3  0  0  0  0  0  0  0  0  0
   25.5420   60.8220   21.3280 C   0  0  3  0  0  0  0  0  0  0  0  0
   25.8860   62.0040   19.1760 N   0  0  0  0  0  0  0  0  0  0  0  0
   23.8550   61.2320   18.3990 F   0  0  0  0  0  0  0  0  0  0  0  0
   22.0900   61.9630   22.3840 C   0  0  0  0  0  0  0  0  0  0  0  0
   22.8370   64.0330   18.5020 O   0  0  0  0  0  0  0  0  0  0  0  0
   22.3810   63.2900   22.0420 C   0  0  0  0  0  0  0  0  0  0  0  0
   27.2130   59.2330   22.2200 C   0  0  0  0  0  0  0  0  0  0  0  0
   18.1220   61.8160   24.3190 C   0  0  0  0  0  0  0  0  0  0  0  0
   20.0650   60.1160   24.3870 N   0  0  0  0  0  0  0  0  0  0  0  0
   19.1120   60.9710   25.1070 C   0  0  0  0  0  0  0  0  0  0  0  0
   18.3010   61.7630   22.7960 C   0  0  3  0  0  0  0  0  0  0  0  0
   20.6790   61.5740   22.5630 C   0  0  0  0  0  0  0  0  0  0  0  0
   24.1240   63.5150   18.2390 C   0  0  0  0  0  0  0  0  0  0  0  0
   19.5570   62.5580   22.4520 C   0  0  0  0  0  0  0  0  0  0  0  0
   26.1910   60.7930   19.9480 C   0  0  3  0  0  0  0  0  0  0  0  0
   18.6840   60.3390   22.3880 C   0  0  0  0  0  0  0  0  0  0  0  0
   27.4160   57.9650   22.7990 O   0  0  0  0  0  0  0  0  0  0  0  0
   24.4530   62.2870   19.0490 C   0  0  2  0  0  0  0  0  0  0  0  0
   27.6940   60.6550   20.1970 C   0  0  0  0  0  0  0  0  0  0  0  0
   27.7700   60.2000   23.0810 O   0  0  0  0  0  0  0  0  0  0  0  0
   23.1560   61.0530   22.2540 C   0  0  0  0  0  0  0  0  0  0  0  0
   23.8580   62.3970   20.4260 C   0  0  0  0  0  0  0  0  0  0  0  0
   22.6610   64.5170   19.8440 C   0  0  0  0  0  0  0  0  0  0  0  0
   24.7390   63.8460   17.2490 O   0  0  0  0  0  0  0  0  0  0  0  0
   25.7160   59.4930   22.0460 C   0  0  0  0  0  0  0  0  0  0  0  0
   27.9310   59.3020   20.8650 C   0  0  0  0  0  0  0  0  0  0  0  0
  1  9  1  0  0  0  0
  1 25  2  0  0  0  0
  1 26  1  0  0  0  0
  2 12  1  0  0  0  0
  2 15  1  0  0  0  0
  2 19  1  0  0  0  0
  3  4  1  0  0  0  0
  3 24  1  0  0  0  0
  3 25  1  0  0  0  0
  4 18  1  0  0  0  0
  4 28  1  0  0  0  0
  5 18  1  0  0  0  0
  5 21  1  0  0  0  0
  6 21  1  0  0  0  0
  7  9  1  0  0  0  0
  7 15  2  0  0  0  0
  7 24  1  0  0  0  0
  8 16  1  0  0  0  0
  8 26  1  0  0  0  0
 10 20  1  0  0  0  0
 10 23  1  0  0  0  0
 10 28  1  0  0  0  0
 10 29  1  0  0  0  0
 11 13  1  0  0  0  0
 11 14  1  0  0  0  0
 12 13  2  0  0  0  0
 14 17  1  0  0  0  0
 14 19  1  0  0  0  0
 15 17  1  0  0  0  0
 16 21  1  0  0  0  0
 16 27  2  0  0  0  0
 18 22  1  0  0  0  0
 21 25  1  0  0  0  0
 22 29  1  0  0  0  0
M  END
>  <Original_Directory>
4ezk_A_rec_3r7r_faz_lig_tt_min_0_pocket10

>  <Original_Filename>
4ezk_A_rec_3r7r_faz_lig_tt_min_0_pocket10_gen_sample_19.sdf

>  <Molecule_ID>
sample_19

>  <logS>
-2.4238901

$$$$