/tmp/tmppsefj42z
  MOE2022           3D

 30 32  0  0  1  0  0  0  0  0999 V2000
   -1.0220   11.3060   11.5020 C   0  0  0  0  0  0  0  0  0  0  0  0
   -0.9760   13.2360   13.0750 C   0  0  0  0  0  0  0  0  0  0  0  0
   -5.5920   12.8950   14.3120 C   0  0  0  0  0  0  0  0  0  0  0  0
    0.6420   15.2580    9.4370 C   0  0  0  0  0  0  0  0  0  0  0  0
   -9.3600   16.1100   12.2450 O   0  0  0  0  0  0  0  0  0  0  0  0
   -2.6890   11.5070   13.4610 C   0  0  0  0  0  0  0  0  0  0  0  0
    0.9890   14.4280   12.4650 N   0  0  0  0  0  0  0  0  0  0  0  0
   -0.6630   15.3400    9.9290 C   0  0  0  0  0  0  0  0  0  0  0  0
   -9.5170   15.1390   13.2010 C   0  0  0  0  0  0  0  0  0  0  0  0
   -7.4630   12.9510   18.5300 C   0  0  0  0  0  0  0  0  0  0  0  0
   -0.3480   14.2000   12.1910 C   0  0  3  0  0  0  0  0  0  0  0  0
   -8.7830   12.3540   14.0320 C   0  0  0  0  0  0  0  0  0  0  0  0
    1.7270   14.9750   10.2210 C   0  0  0  0  0  0  0  0  0  0  0  0
   -3.2210   12.2230   14.6400 C   0  0  0  0  0  0  0  0  0  0  0  0
   -6.1140   13.2060   18.6230 C   0  0  0  0  0  0  0  0  0  0  0  0
   -3.1950   10.4580   13.0930 O   0  0  0  0  0  0  0  0  0  0  0  0
   -6.6910   13.3020   15.0030 C   0  0  3  0  0  0  0  0  0  0  0  0
  -10.1290   12.1700   13.7540 C   0  0  0  0  0  0  0  0  0  0  0  0
  -10.7620   14.5040   13.3280 C   0  0  0  0  0  0  0  0  0  0  0  0
   -8.0100   13.5020   14.2870 C   0  0  0  0  0  0  0  0  0  0  0  0
   -7.8670   13.1900   17.2430 N   0  0  0  0  0  0  0  0  0  0  0  0
   -8.3720   14.7970   13.9350 C   0  0  0  0  0  0  0  0  0  0  0  0
   -4.2100   13.1340   14.5510 C   0  0  0  0  0  0  0  0  0  0  0  0
    2.8450   15.6560   12.1390 O   0  0  0  0  0  0  0  0  0  0  0  0
   -6.7540   13.3870   16.4880 C   0  0  3  0  0  0  0  0  0  0  0  0
   -5.7070   13.6400   17.3570 C   0  0  0  0  0  0  0  0  0  0  0  0
   -1.0480   14.8210   11.1550 C   0  0  0  0  0  0  0  0  0  0  0  0
   -1.5740   12.0800   12.6810 C   0  0  3  0  0  0  0  0  0  0  0  0
  -11.0540   13.1650   13.4740 C   0  0  0  0  0  0  0  0  0  0  0  0
    1.8920   15.0270   11.6210 C   0  0  0  0  0  0  0  0  0  0  0  0
  1 28  1  0  0  0  0
  2 11  1  0  0  0  0
  2 28  1  0  0  0  0
  3 17  1  0  0  0  0
  3 23  1  0  0  0  0
  4  8  1  0  0  0  0
  4 13  1  0  0  0  0
  5  9  1  0  0  0  0
  6 14  1  0  0  0  0
  6 16  2  0  0  0  0
  6 28  1  0  0  0  0
  7 11  1  0  0  0  0
  7 30  1  0  0  0  0
  8 27  2  0  0  0  0
  9 19  2  0  0  0  0
  9 22  1  0  0  0  0
 10 15  1  0  0  0  0
 10 21  1  0  0  0  0
 11 27  1  0  0  0  0
 12 18  1  0  0  0  0
 12 20  2  0  0  0  0
 13 30  1  0  0  0  0
 14 23  1  0  0  0  0
 15 26  1  0  0  0  0
 17 20  1  0  0  0  0
 17 25  1  0  0  0  0
 18 29  2  0  0  0  0
 19 29  1  0  0  0  0
 20 22  1  0  0  0  0
 21 25  1  0  0  0  0
 24 30  2  0  0  0  0
 25 26  1  0  0  0  0
M  END
>  <Original_Directory>
5tbh_B_rec_5isg_6d6_lig_tt_min_0_pocket10

>  <Original_Filename>
5tbh_B_rec_5isg_6d6_lig_tt_min_0_pocket10_gen_sample_5.sdf

>  <Molecule_ID>
sample_5

>  <logS>
-2.3915701

$$$$