/tmp/tmpl8tn3d22
  MOE2022           3D

 37 42  0  0  1  0  0  0  0  0999 V2000
    9.3520  -14.7010   11.9470 C   0  0  0  0  0  0  0  0  0  0  0  0
   16.5010  -12.3420   12.6250 C   0  0  0  0  0  0  0  0  0  0  0  0
    9.9770  -13.9990   14.8310 C   0  0  0  0  0  0  0  0  0  0  0  0
    7.7770  -13.3840   15.5460 C   0  0  0  0  0  0  0  0  0  0  0  0
   17.8150  -13.2150    7.5410 C   0  0  0  0  0  0  0  0  0  0  0  0
    9.6990  -12.5030   16.6640 C   0  0  0  0  0  0  0  0  0  0  0  0
   17.5570  -11.1270   10.6490 C   0  0  0  0  0  0  0  0  0  0  0  0
   17.6110  -13.1700    6.2020 C   0  0  0  0  0  0  0  0  0  0  0  0
    7.1360  -13.9040   10.4940 C   0  0  0  0  0  0  0  0  0  0  0  0
   15.1240  -11.1250   14.2040 C   0  0  0  0  0  0  0  0  0  0  0  0
   12.5390  -12.3420   16.6210 C   0  0  3  0  0  0  0  0  0  0  0  0
   15.3240  -13.5240   14.4330 C   0  0  0  0  0  0  0  0  0  0  0  0
    8.0800  -14.8170   12.5050 C   0  0  0  0  0  0  0  0  0  0  0  0
   13.7720  -12.3500   15.7560 C   0  0  0  0  0  0  0  0  0  0  0  0
   10.8500  -14.4030   13.8090 N   0  0  0  0  0  0  0  0  0  0  0  0
   14.3630  -13.5180   15.3950 N   0  0  0  0  0  0  0  0  0  0  0  0
    8.5980  -14.2030   14.7900 C   0  0  0  0  0  0  0  0  0  0  0  0
   14.0060  -14.7840   16.0580 C   0  0  0  0  0  0  0  0  0  0  0  0
   10.5110  -13.3990   15.9710 C   0  0  0  0  0  0  0  0  0  0  0  0
    8.3260  -12.5380   16.4700 C   0  0  0  0  0  0  0  0  0  0  0  0
   16.7720  -11.1530   11.9470 C   0  0  0  0  0  0  0  0  0  0  0  0
   12.8060  -12.1080   18.0960 C   0  0  0  0  0  0  0  0  0  0  0  0
    9.5190  -14.1700   10.6770 C   0  0  0  0  0  0  0  0  0  0  0  0
    6.9720  -14.4230   11.7730 C   0  0  0  0  0  0  0  0  0  0  0  0
   16.2970   -9.9440   12.4640 C   0  0  0  0  0  0  0  0  0  0  0  0
   14.2150  -11.1350   15.2590 C   0  0  0  0  0  0  0  0  0  0  0  0
   16.8990  -11.8250    9.4650 C   0  0  0  0  0  0  0  0  0  0  0  0
   10.5180  -15.1750   12.7380 C   0  0  0  0  0  0  0  0  0  0  0  0
   17.9500  -12.5330    8.6590 C   0  0  0  0  0  0  0  0  0  0  0  0
   11.8230  -13.5980   16.3600 N   0  0  0  0  0  0  0  0  0  0  0  0
    8.4060  -13.7640    9.9580 C   0  0  0  0  0  0  0  0  0  0  0  0
   12.5210  -14.8710   16.3680 C   0  0  0  0  0  0  0  0  0  0  0  0
    7.9300  -15.2520   13.9370 C   0  0  0  0  0  0  0  0  0  0  0  0
   15.4820   -9.9240   13.5880 C   0  0  0  0  0  0  0  0  0  0  0  0
   11.0930  -16.2230   12.4630 O   0  0  0  0  0  0  0  0  0  0  0  0
   16.3550  -12.9570    5.4880 C   0  0  0  0  0  0  0  0  0  0  0  0
   15.6710  -12.3470   13.7560 C   0  0  0  0  0  0  0  0  0  0  0  0
  1 13  2  0  0  0  0
  1 23  1  0  0  0  0
  1 28  1  0  0  0  0
  2 21  1  0  0  0  0
  2 37  1  0  0  0  0
  3 15  1  0  0  0  0
  3 17  2  0  0  0  0
  3 19  1  0  0  0  0
  4 17  1  0  0  0  0
  4 20  2  0  0  0  0
  5  8  1  0  0  0  0
  5 29  1  0  0  0  0
  6 19  2  0  0  0  0
  6 20  1  0  0  0  0
  7 21  1  0  0  0  0
  7 27  1  0  0  0  0
  8 36  1  0  0  0  0
  9 24  2  0  0  0  0
  9 31  1  0  0  0  0
 10 26  1  0  0  0  0
 10 34  2  0  0  0  0
 10 37  1  0  0  0  0
 11 14  1  0  0  0  0
 11 22  1  0  0  0  0
 11 30  1  0  0  0  0
 12 16  1  0  0  0  0
 12 37  2  0  0  0  0
 13 24  1  0  0  0  0
 13 33  1  0  0  0  0
 14 16  1  0  0  0  0
 14 26  2  0  0  0  0
 15 28  1  0  0  0  0
 16 18  1  0  0  0  0
 17 33  1  0  0  0  0
 18 32  1  0  0  0  0
 19 30  1  0  0  0  0
 21 25  2  0  0  0  0
 23 31  2  0  0  0  0
 25 34  1  0  0  0  0
 27 29  1  0  0  0  0
 28 35  2  0  0  0  0
 30 32  1  0  0  0  0
M  END
>  <Original_Directory>
4ufd_H_rec_4uff_6v2_lig_tt_docked_1_pocket10

>  <Original_Filename>
4ufd_H_rec_4uff_6v2_lig_tt_docked_1_pocket10_gen_sample_13.sdf

>  <Molecule_ID>
sample_13

>  <logS>
-8.7745104

$$$$