/tmp/tmp193s2u8v
  MOE2022           3D

 26 28  0  0  1  0  0  0  0  0999 V2000
   -1.2400    0.8520   11.1680 C   0  0  0  0  0  0  0  0  0  0  0  0
   -6.1520    0.8360   16.1390 C   0  0  0  0  0  0  0  0  0  0  0  0
   -4.4790   -0.5300   15.0260 O   0  0  0  0  0  0  0  0  0  0  0  0
   -4.9930    5.0110   13.7250 C   0  0  0  0  0  0  0  0  0  0  0  0
   -2.9130   -0.8630   11.3150 C   0  0  0  0  0  0  0  0  0  0  0  0
   -5.7620    3.9420   13.1150 C   0  0  0  0  0  0  0  0  0  0  0  0
   -3.3580    1.3180   12.2740 C   0  0  0  0  0  0  0  0  0  0  0  0
   -5.3710    2.4780   17.6550 C   0  0  0  0  0  0  0  0  0  0  0  0
   -3.3440    6.9280   14.9320 C   0  0  0  0  0  0  0  0  0  0  0  0
   -3.7080    5.2700   11.7190 O   0  0  0  0  0  0  0  0  0  0  0  0
   -3.8850    1.6470   15.8820 C   0  0  3  0  0  0  0  0  0  0  0  0
   -5.4000    3.2290   18.6350 O   0  0  0  0  0  0  0  0  0  0  0  0
   -4.8800    0.6160   15.6810 N   0  0  0  0  0  0  0  0  0  0  0  0
   -5.2690    5.4680   15.0190 C   0  0  0  0  0  0  0  0  0  0  0  0
   -6.2590    1.4070   17.4210 C   0  0  0  0  0  0  0  0  0  0  0  0
   -3.3490    2.2840   14.6160 C   0  0  0  0  0  0  0  0  0  0  0  0
   -3.9150    5.5940   13.0230 C   0  0  0  0  0  0  0  0  0  0  0  0
   -3.8080    0.0560   11.8750 C   0  0  0  0  0  0  0  0  0  0  0  0
   -4.4620    6.4340   15.6100 C   0  0  0  0  0  0  0  0  0  0  0  0
   -5.2360    2.6920   12.9760 C   0  0  0  0  0  0  0  0  0  0  0  0
   -3.0800    6.5160   13.6320 C   0  0  0  0  0  0  0  0  0  0  0  0
   -2.1300    1.7630   11.7630 C   0  0  0  0  0  0  0  0  0  0  0  0
   -4.0200    2.1110   13.2950 C   0  0  3  0  0  0  0  0  0  0  0  0
   -4.3180    2.6420   16.7990 O   0  0  0  0  0  0  0  0  0  0  0  0
   -7.1420    0.5960   15.4380 O   0  0  0  0  0  0  0  0  0  0  0  0
   -1.5920   -0.4870   11.0670 C   0  0  0  0  0  0  0  0  0  0  0  0
  1 22  1  0  0  0  0
  1 26  2  0  0  0  0
  2 13  1  0  0  0  0
  2 15  1  0  0  0  0
  2 25  2  0  0  0  0
  3 13  1  0  0  0  0
  4  6  1  0  0  0  0
  4 14  1  0  0  0  0
  4 17  2  0  0  0  0
  5 18  2  0  0  0  0
  5 26  1  0  0  0  0
  6 20  2  0  0  0  0
  7 18  1  0  0  0  0
  7 22  2  0  0  0  0
  7 23  1  0  0  0  0
  8 12  2  0  0  0  0
  8 15  1  0  0  0  0
  8 24  1  0  0  0  0
  9 19  1  0  0  0  0
  9 21  2  0  0  0  0
 10 17  1  0  0  0  0
 11 13  1  0  0  0  0
 11 16  1  0  0  0  0
 11 24  1  0  0  0  0
 14 19  2  0  0  0  0
 16 23  1  0  0  0  0
 17 21  1  0  0  0  0
 20 23  1  0  0  0  0
M  END
>  <Original_Directory>
1bnn_A_rec_1xpz_4tz_lig_tt_docked_13_pocket10

>  <Original_Filename>
1bnn_A_rec_1xpz_4tz_lig_tt_docked_13_pocket10_gen_sample_12.sdf

>  <Molecule_ID>
sample_12

>  <logS>
-4.0170798

$$$$