/tmp/tmp7dp4gvbw
  MOE2022           3D

 21 23  0  0  1  0  0  0  0  0999 V2000
   15.2240   41.5220   35.7230 C   0  0  3  0  0  0  0  0  0  0  0  0
   13.9770   40.9970   33.2050 C   0  0  0  0  0  0  0  0  0  0  0  0
   16.4980   40.8220   35.2000 C   0  0  3  0  0  0  0  0  0  0  0  0
   15.1130   42.6500   34.6760 C   0  0  0  0  0  0  0  0  0  0  0  0
   17.6630   38.6490   35.4550 C   0  0  0  0  0  0  0  0  0  0  0  0
   16.6520   39.4830   35.7470 N   0  0  0  0  0  0  0  0  0  0  0  0
   18.7050   37.7290   37.5380 C   0  0  0  0  0  0  0  0  0  0  0  0
   17.4850   35.2610   37.0880 C   0  0  0  0  0  0  0  0  0  0  0  0
   19.0730   36.6200   38.2930 C   0  0  0  0  0  0  0  0  0  0  0  0
   18.3670   38.7480   34.4490 O   0  0  0  0  0  0  0  0  0  0  0  0
   11.9550   40.0700   34.3010 N   0  0  0  0  0  0  0  0  0  0  0  0
   17.8730   37.5440   36.4270 C   0  0  0  0  0  0  0  0  0  0  0  0
   15.2700   41.8290   33.3780 C   0  0  3  0  0  0  0  0  0  0  0  0
   18.5280   35.3690   38.0250 C   0  0  0  0  0  0  0  0  0  0  0  0
   17.2270   36.3260   36.2280 C   0  0  0  0  0  0  0  0  0  0  0  0
   16.4550   40.8980   33.6770 C   0  0  0  0  0  0  0  0  0  0  0  0
   13.0840   41.0010   34.4500 C   0  0  3  0  0  0  0  0  0  0  0  0
   16.7740   34.1100   36.9900 O   0  0  0  0  0  0  0  0  0  0  0  0
   19.2780   39.0890   37.8710 C   0  0  0  0  0  0  0  0  0  0  0  0
   13.9380   40.6790   35.6810 C   0  0  0  0  0  0  0  0  0  0  0  0
   19.0800   34.1360   38.7010 C   0  0  0  0  0  0  0  0  0  0  0  0
  1  3  1  0  0  0  0
  1  4  1  0  0  0  0
  1 20  1  0  0  0  0
  2 13  1  0  0  0  0
  2 17  1  0  0  0  0
  3  6  1  0  0  0  0
  3 16  1  0  0  0  0
  4 13  1  0  0  0  0
  5  6  1  0  0  0  0
  5 10  2  0  0  0  0
  5 12  1  0  0  0  0
  7  9  2  0  0  0  0
  7 12  1  0  0  0  0
  7 19  1  0  0  0  0
  8 14  2  0  0  0  0
  8 15  1  0  0  0  0
  8 18  1  0  0  0  0
  9 14  1  0  0  0  0
 11 17  1  0  0  0  0
 12 15  2  0  0  0  0
 13 16  1  0  0  0  0
 14 21  1  0  0  0  0
 17 20  1  0  0  0  0
M  END
>  <Original_Directory>
1km6_A_rec_1km3_up6_lig_tt_docked_7_pocket10

>  <Original_Filename>
1km6_A_rec_1km3_up6_lig_tt_docked_7_pocket10_gen_sample_9.sdf

>  <Molecule_ID>
sample_9

>  <logS>
-2.7522299

$$$$