/tmp/tmphrp0l0jr
  MOE2022           3D

 12 13  0  0  1  0  0  0  0  0999 V2000
   22.7510   -2.7290  -17.7130 O   0  0  0  0  0  0  0  0  0  0  0  0
   24.7920   -1.1220  -20.3020 C   0  0  3  0  0  0  0  0  0  0  0  0
   23.9260   -0.7170  -22.7250 C   0  0  0  0  0  0  0  0  0  0  0  0
   21.9240   -0.0290  -21.4570 C   0  0  0  0  0  0  0  0  0  0  0  0
   25.3210   -2.4780  -18.4260 O   0  0  0  0  0  0  0  0  0  0  0  0
   22.9910   -2.0860  -18.7200 C   0  0  0  0  0  0  0  0  0  0  0  0
   22.5070   -0.1590  -20.1520 C   0  0  3  0  0  0  0  0  0  0  0  0
   22.6270   -0.1460  -22.6350 C   0  0  0  0  0  0  0  0  0  0  0  0
   24.6170   -1.5250  -21.7750 C   0  0  0  0  0  0  0  0  0  0  0  0
   24.3250   -2.3280  -19.4310 C   0  0  3  0  0  0  0  0  0  0  0  0
   22.0940   -1.1870  -19.2510 N   0  0  0  0  0  0  0  0  0  0  0  0
   23.9870    0.1310  -20.0090 C   0  0  0  0  0  0  0  0  0  0  0  0
  1  6  2  0  0  0  0
  2  9  1  0  0  0  0
  2 10  1  0  0  0  0
  2 12  1  0  0  0  0
  3  8  1  0  0  0  0
  3  9  1  0  0  0  0
  4  7  1  0  0  0  0
  4  8  1  0  0  0  0
  5 10  1  0  0  0  0
  6 10  1  0  0  0  0
  6 11  1  0  0  0  0
  7 11  1  0  0  0  0
  7 12  1  0  0  0  0
M  END
>  <Original_Directory>
4bs0_A_rec_4bs0_6nt_lig_tt_min_0_pocket10

>  <Original_Filename>
4bs0_A_rec_4bs0_6nt_lig_tt_min_0_pocket10_gen_sample_9.sdf

>  <Molecule_ID>
sample_9

>  <logS>
-1.25688

$$$$