/tmp/tmp5_j61eqn
  MOE2022           3D

 20 21  0  0  1  0  0  0  0  0999 V2000
   21.7540  124.8490   39.7300 C   0  0  0  0  0  0  0  0  0  0  0  0
   20.1110  125.1350   43.0920 C   0  0  1  0  0  0  0  0  0  0  0  0
   26.4220  125.8170   39.9100 C   0  0  0  0  0  0  0  0  0  0  0  0
   19.3260  124.0610   45.2370 C   0  0  0  0  0  0  0  0  0  0  0  0
   20.9250  125.8230   45.3530 C   0  0  0  0  0  0  0  0  0  0  0  0
   23.3100  125.0080   41.6900 C   0  0  3  0  0  0  0  0  0  0  0  0
   25.6320  125.5460   41.0140 C   0  0  0  0  0  0  0  0  0  0  0  0
   24.3160  125.9790   41.2730 C   0  0  0  0  0  0  0  0  0  0  0  0
   23.7230  123.8880   42.5880 C   0  0  0  0  0  0  0  0  0  0  0  0
   19.2440  126.1290   42.3560 C   0  0  0  0  0  0  0  0  0  0  0  0
   25.4070  127.8880   39.0610 C   0  0  0  0  0  0  0  0  0  0  0  0
   21.0150  125.9020   43.9810 C   0  0  0  0  0  0  0  0  0  0  0  0
   20.0690  124.9470   45.9980 C   0  0  0  0  0  0  0  0  0  0  0  0
   24.0000  127.3340   41.0600 C   0  0  0  0  0  0  0  0  0  0  0  0
   24.4250  128.1020   39.9930 C   0  0  0  0  0  0  0  0  0  0  0  0
   19.2300  124.2090   43.8530 C   0  0  0  0  0  0  0  0  0  0  0  0
   20.3780  123.0280   41.5280 C   0  0  0  0  0  0  0  0  0  0  0  0
   20.9210  124.3190   42.0720 C   0  0  3  0  0  0  0  0  0  0  0  0
   21.9080  125.0890   41.2090 C   0  0  3  0  0  0  0  0  0  0  0  0
   26.3310  126.8730   39.0170 C   0  0  0  0  0  0  0  0  0  0  0  0
  1 19  1  0  0  0  0
  2 10  1  0  0  0  0
  2 12  1  0  0  0  0
  2 16  1  0  0  0  0
  2 18  1  0  0  0  0
  3  7  1  0  0  0  0
  3 20  2  0  0  0  0
  4 13  1  0  0  0  0
  4 16  2  0  0  0  0
  5 12  1  0  0  0  0
  5 13  2  0  0  0  0
  6  8  1  0  0  0  0
  6  9  1  0  0  0  0
  6 19  1  0  0  0  0
  7  8  1  0  0  0  0
  8 14  2  0  0  0  0
 11 15  2  0  0  0  0
 11 20  1  0  0  0  0
 14 15  1  0  0  0  0
 17 18  1  0  0  0  0
 18 19  1  0  0  0  0
M  END
>  <Original_Directory>
3phb_T_rec_1rfg_gmp_lig_tt_docked_0_pocket10

>  <Original_Filename>
3phb_T_rec_1rfg_gmp_lig_tt_docked_0_pocket10_gen_sample_15.sdf

>  <Molecule_ID>
sample_15

>  <logS>
-6.1742702

$$$$