/tmp/tmp1nmk4ays
  MOE2022           3D

  9  9  0  0  0  0  0  0  0  0999 V2000
   24.6830   19.6120    3.3130 C   0  0  0  0  0  0  0  0  0  0  0  0
   24.6170   20.5620    2.2890 C   0  0  0  0  0  0  0  0  0  0  0  0
   25.4380   21.7070    2.3310 C   0  0  0  0  0  0  0  0  0  0  0  0
   26.7780   20.1950    4.5580 C   0  0  0  0  0  0  0  0  0  0  0  0
   23.6330   20.4980    1.3680 N   0  0  0  0  0  0  0  0  0  0  0  0
   25.6150   19.5030    4.3050 C   0  0  0  0  0  0  0  0  0  0  0  0
   24.8610   22.9230    2.1100 O   0  0  0  0  0  0  0  0  0  0  0  0
   26.7940   21.6430    2.6030 C   0  0  0  0  0  0  0  0  0  0  0  0
   27.3730   21.1490    3.7460 C   0  0  0  0  0  0  0  0  0  0  0  0
  1  2  2  0  0  0  0
  1  6  1  0  0  0  0
  2  3  1  0  0  0  0
  2  5  1  0  0  0  0
  3  7  1  0  0  0  0
  3  8  2  0  0  0  0
  4  6  1  0  0  0  0
  4  9  2  0  0  0  0
  8  9  1  0  0  0  0
M  END
>  <Original_Directory>
5hs4_A_rec_1t24_oxq_lig_tt_min_0_pocket10

>  <Original_Filename>
5hs4_A_rec_1t24_oxq_lig_tt_min_0_pocket10_gen_sample_17.sdf

>  <Molecule_ID>
sample_17

>  <logS>
-0.56975001

$$$$