/tmp/tmpwvsxvczf
  MOE2022           3D

  9 10  0  0  1  0  0  0  0  0999 V2000
   25.5700   22.4870    2.5500 C   0  0  0  0  0  0  0  0  0  0  0  0
   26.9380   21.9440    2.2170 C   0  0  0  0  0  0  0  0  0  0  0  0
   25.7140   20.3130    3.4030 C   0  0  0  0  0  0  0  0  0  0  0  0
   24.8520   23.0180    1.7470 O   0  0  0  0  0  0  0  0  0  0  0  0
   27.1230   20.8770    3.3110 C   0  0  3  0  0  0  0  0  0  0  0  0
   25.7930   22.0690    4.8700 C   0  0  3  0  0  0  0  0  0  0  0  0
   24.9810   21.6190    3.6630 C   0  0  3  0  0  0  0  0  0  0  0  0
   25.4400   23.0240    5.7570 N   0  0  0  0  0  0  0  0  0  0  0  0
   27.2290   21.6460    4.6410 C   0  0  0  0  0  0  0  0  0  0  0  0
  1  2  1  0  0  0  0
  1  4  2  0  0  0  0
  1  7  1  0  0  0  0
  2  5  1  0  0  0  0
  3  5  1  0  0  0  0
  3  7  1  0  0  0  0
  5  9  1  0  0  0  0
  6  7  1  0  0  0  0
  6  8  1  0  0  0  0
  6  9  1  0  0  0  0
M  END
>  <Original_Directory>
5hs4_A_rec_1t24_oxq_lig_tt_min_0_pocket10

>  <Original_Filename>
5hs4_A_rec_1t24_oxq_lig_tt_min_0_pocket10_gen_sample_5.sdf

>  <Molecule_ID>
sample_5

>  <logS>
-0.029200001

$$$$