/tmp/tmp7ca96z80
  MOE2022           3D

 25 29  0  0  1  0  0  0  0  0999 V2000
   15.4030    5.3460   10.9670 N   0  0  0  0  0  0  0  0  0  0  0  0
   14.1660    4.8460   14.4000 C   0  0  0  0  0  0  0  0  0  0  0  0
   18.8050    1.0280    6.4860 O   0  0  0  0  0  0  0  0  0  0  0  0
   16.6150    4.4400   14.4330 C   0  0  0  0  0  0  0  0  0  0  0  0
   20.0770    0.9230   10.0430 C   0  0  0  0  0  0  0  0  0  0  0  0
   15.4370    5.0530   15.2170 C   0  0  3  0  0  0  0  0  0  0  0  0
   19.7930    1.1480    7.5050 C   0  0  0  0  0  0  0  0  0  0  0  0
   14.4450    5.7980   13.2350 C   0  0  2  0  0  0  0  0  0  0  0  0
   15.4500    5.1580   12.2990 C   0  0  0  0  0  0  0  0  0  0  0  0
   18.0870    2.1650    9.0030 C   0  0  0  0  0  0  0  0  0  0  0  0
   17.0510    2.1350    8.3290 O   0  0  0  0  0  0  0  0  0  0  0  0
   15.1350    7.0180   13.8360 C   0  0  3  0  0  0  0  0  0  0  0  0
   16.4690    4.4180   12.9250 C   0  0  0  0  0  0  0  0  0  0  0  0
   13.2260    6.0890   12.5670 O   0  0  0  0  0  0  0  0  0  0  0  0
   16.3700    4.7860   10.2030 C   0  0  0  0  0  0  0  0  0  0  0  0
   17.3180    3.6340   12.1060 C   0  0  0  0  0  0  0  0  0  0  0  0
   19.1080    1.0500    8.8730 C   0  0  3  0  0  0  0  0  0  0  0  0
   15.6010    6.5820   15.2150 C   0  0  0  0  0  0  0  0  0  0  0  0
   19.7880    3.4340   10.3520 C   0  0  0  0  0  0  0  0  0  0  0  0
   14.2320    8.1180   13.9200 O   0  0  0  0  0  0  0  0  0  0  0  0
   19.3010    1.8890   12.2040 C   0  0  0  0  0  0  0  0  0  0  0  0
   18.3600    3.2980    9.8650 C   0  0  3  0  0  0  0  0  0  0  0  0
   18.2490    2.6280   12.6620 C   0  0  0  0  0  0  0  0  0  0  0  0
   20.2210    2.1180   10.9920 C   0  0  3  0  0  0  0  0  0  0  0  0
   17.3290    3.8950   10.7210 C   0  0  0  0  0  0  0  0  0  0  0  0
  1  9  1  0  0  0  0
  1 15  2  0  0  0  0
  2  6  1  0  0  0  0
  2  8  1  0  0  0  0
  3  7  1  0  0  0  0
  4  6  1  0  0  0  0
  4 13  1  0  0  0  0
  5 17  1  0  0  0  0
  5 24  1  0  0  0  0
  6 18  1  0  0  0  0
  7 17  1  0  0  0  0
  8  9  1  0  0  0  0
  8 12  1  0  0  0  0
  8 14  1  0  0  0  0
  9 13  2  0  0  0  0
 10 11  2  0  0  0  0
 10 17  1  0  0  0  0
 10 22  1  0  0  0  0
 12 18  1  0  0  0  0
 12 20  1  0  0  0  0
 13 16  1  0  0  0  0
 15 25  1  0  0  0  0
 16 23  1  0  0  0  0
 16 25  2  0  0  0  0
 19 22  1  0  0  0  0
 19 24  1  0  0  0  0
 21 23  1  0  0  0  0
 21 24  1  0  0  0  0
 22 25  1  0  0  0  0
M  END
>  <Original_Directory>
5b0x_A_rec_3pe1_3ng_lig_tt_docked_3_pocket10

>  <Original_Filename>
5b0x_A_rec_3pe1_3ng_lig_tt_docked_3_pocket10_gen_sample_17.sdf

>  <Molecule_ID>
sample_17

>  <logS>
-2.4103

$$$$