/tmp/tmpmh8ja4j_
  MOE2022           3D

 25 28  0  0  1  0  0  0  0  0999 V2000
   20.9440   58.2620   23.7700 C   0  0  0  0  0  0  0  0  0  0  0  0
   17.8650   61.2720   23.9760 C   0  0  0  0  0  0  0  0  0  0  0  0
   20.0990   61.5700   23.1420 C   0  0  0  0  0  0  0  0  0  0  0  0
   23.4410   61.0470   21.4060 C   0  0  3  0  0  0  0  0  0  0  0  0
   24.8320   61.2710   22.0590 C   0  0  3  0  0  0  0  0  0  0  0  0
   21.5220   61.2030   23.1980 C   0  0  3  0  0  0  0  0  0  0  0  0
   25.6740   59.9940   22.0480 C   0  0  0  0  0  0  0  0  0  0  0  0
   27.0520   60.1430   21.4160 C   0  0  0  0  0  0  0  0  0  0  0  0
   22.3680   63.0680   22.0620 O   0  0  0  0  0  0  0  0  0  0  0  0
   19.7190   60.0060   25.1110 C   0  0  0  0  0  0  0  0  0  0  0  0
   21.0970   59.3890   24.7890 C   0  0  2  0  0  0  0  0  0  0  0  0
   23.3910   61.2810   19.8840 C   0  0  3  0  0  0  0  0  0  0  0  0
   25.9440   61.8840   19.9300 C   0  0  3  0  0  0  0  0  0  0  0  0
   25.5710   62.3890   21.3140 C   0  0  0  0  0  0  0  0  0  0  0  0
   17.4080   62.1320   22.9920 C   0  0  0  0  0  0  0  0  0  0  0  0
   23.2340   63.2510   18.4040 C   0  0  0  0  0  0  0  0  0  0  0  0
   19.6530   62.4710   22.2360 N   0  0  0  0  0  0  0  0  0  0  0  0
   22.0350   60.4600   24.2190 C   0  0  0  0  0  0  0  0  0  0  0  0
   24.7540   61.2870   19.1870 C   0  0  0  0  0  0  0  0  0  0  0  0
   22.4380   61.8580   22.2140 C   0  0  0  0  0  0  0  0  0  0  0  0
   19.2230   60.9960   24.0860 C   0  0  0  0  0  0  0  0  0  0  0  0
   27.0210   60.8040   20.0560 C   0  0  0  0  0  0  0  0  0  0  0  0
   22.6740   62.5120   19.5400 N   0  0  0  0  0  0  0  0  0  0  0  0
   21.6560   58.9650   26.0310 O   0  0  0  0  0  0  0  0  0  0  0  0
   18.3340   62.6940   22.1230 C   0  0  0  0  0  0  0  0  0  0  0  0
  1 11  1  0  0  0  0
  2 15  2  0  0  0  0
  2 21  1  0  0  0  0
  3  6  1  0  0  0  0
  3 17  1  0  0  0  0
  3 21  2  0  0  0  0
  4  5  1  0  0  0  0
  4 12  1  0  0  0  0
  4 20  1  0  0  0  0
  5  7  1  0  0  0  0
  5 14  1  0  0  0  0
  6 18  1  0  0  0  0
  6 20  1  0  0  0  0
  7  8  1  0  0  0  0
  8 22  1  0  0  0  0
  9 20  2  0  0  0  0
 10 11  1  0  0  0  0
 10 21  1  0  0  0  0
 11 18  1  0  0  0  0
 11 24  1  0  0  0  0
 12 19  1  0  0  0  0
 12 23  1  0  0  0  0
 13 14  1  0  0  0  0
 13 19  1  0  0  0  0
 13 22  1  0  0  0  0
 15 25  1  0  0  0  0
 16 23  1  0  0  0  0
 17 25  2  0  0  0  0
M  END
>  <Original_Directory>
3p2b_A_rec_3l54_lxx_lig_tt_docked_0_pocket10

>  <Original_Filename>
3p2b_A_rec_3l54_lxx_lig_tt_docked_0_pocket10_gen_sample_9.sdf

>  <Molecule_ID>
sample_9

>  <logS>
-3.2673199

$$$$