/tmp/tmp72cu2efx
  MOE2022           3D

 25 29  0  0  1  0  0  0  0  0999 V2000
   22.5780   60.0270   24.1820 C   0  0  0  0  0  0  0  0  0  0  0  0
   23.3890   61.0950   20.7470 C   0  0  3  0  0  0  0  0  0  0  0  0
   23.5570   61.3420   22.2550 C   0  0  0  0  0  0  0  0  0  0  0  0
   24.4450   60.3360   19.9510 C   0  0  3  0  0  0  0  0  0  0  0  0
   18.5370   63.4310   21.9380 C   0  0  0  0  0  0  0  0  0  0  0  0
   28.4030   59.6240   21.4410 C   0  0  0  0  0  0  0  0  0  0  0  0
   25.8350   60.1630   20.5210 C   0  0  0  0  0  0  0  0  0  0  0  0
   24.4920   61.0010   18.5820 C   0  0  0  0  0  0  0  0  0  0  0  0
   22.3700   60.7800   23.0330 C   0  0  0  0  0  0  0  0  0  0  0  0
   20.4090   60.5110   25.0140 C   0  0  0  0  0  0  0  0  0  0  0  0
   20.5590   62.0350   21.8630 N   0  0  0  0  0  0  0  0  0  0  0  0
   17.4840   61.3250   23.4960 C   0  0  0  0  0  0  0  0  0  0  0  0
   23.5080   62.1430   18.5810 C   0  0  0  0  0  0  0  0  0  0  0  0
   19.2380   62.2310   22.1650 C   0  0  3  0  0  0  0  0  0  0  0  0
   23.1770   62.4340   20.0360 C   0  0  0  0  0  0  0  0  0  0  0  0
   17.1690   63.3450   22.1840 C   0  0  0  0  0  0  0  0  0  0  0  0
   21.6590   59.7240   25.0790 N   0  0  0  0  0  0  0  0  0  0  0  0
   21.0360   61.1440   22.7760 C   0  0  3  0  0  0  0  0  0  0  0  0
   28.2260   60.3520   20.2840 C   0  0  0  0  0  0  0  0  0  0  0  0
   19.9250   60.4680   23.5350 C   0  0  3  0  0  0  0  0  0  0  0  0
   26.0280   59.4720   21.7050 C   0  0  0  0  0  0  0  0  0  0  0  0
   27.3080   59.2590   22.2030 C   0  0  0  0  0  0  0  0  0  0  0  0
   18.8660   61.5330   23.3650 C   0  0  3  0  0  0  0  0  0  0  0  0
   16.6490   62.2980   22.9450 C   0  0  0  0  0  0  0  0  0  0  0  0
   26.9450   60.6470   19.8450 C   0  0  0  0  0  0  0  0  0  0  0  0
  1  9  2  0  0  0  0
  1 17  1  0  0  0  0
  2  3  1  0  0  0  0
  2  4  1  0  0  0  0
  2 15  1  0  0  0  0
  3  9  1  0  0  0  0
  4  7  1  0  0  0  0
  4  8  1  0  0  0  0
  5 14  1  0  0  0  0
  5 16  1  0  0  0  0
  6 19  1  0  0  0  0
  6 22  2  0  0  0  0
  7 21  2  0  0  0  0
  7 25  1  0  0  0  0
  8 13  1  0  0  0  0
  9 18  1  0  0  0  0
 10 17  1  0  0  0  0
 10 20  1  0  0  0  0
 11 14  1  0  0  0  0
 11 18  1  0  0  0  0
 12 23  1  0  0  0  0
 12 24  1  0  0  0  0
 13 15  1  0  0  0  0
 14 23  1  0  0  0  0
 16 24  2  0  0  0  0
 18 20  1  0  0  0  0
 19 25  2  0  0  0  0
 20 23  1  0  0  0  0
 21 22  1  0  0  0  0
M  END
>  <Original_Directory>
3p2b_A_rec_3l54_lxx_lig_tt_docked_0_pocket10

>  <Original_Filename>
3p2b_A_rec_3l54_lxx_lig_tt_docked_0_pocket10_gen_sample_5.sdf

>  <Molecule_ID>
sample_5

>  <logS>
-4.2589998

$$$$