
  MOE2022           3D

 19 21  0  0  1  0  0  0  0  0999 V2000
   -6.2840   44.3180   26.3590 C   0  0  0  0  0  0  0  0  0  0  0  0
   -5.5070   42.1210   25.8990 C   0  0  0  0  0  0  0  0  0  0  0  0
   -4.4330   41.1220   26.0120 C   0  0  0  0  0  0  0  0  0  0  0  0
   -6.0000   45.4390   26.7900 O   0  0  0  0  0  0  0  0  0  0  0  0
   -3.0300   41.5100   25.6300 C   0  0  0  0  0  0  0  0  0  0  0  0
   -2.2190   40.2460   25.8420 C   0  0  3  0  0  0  0  0  0  0  0  0
   -6.5980   41.9210   25.0790 C   0  0  0  0  0  0  0  0  0  0  0  0
   -0.7510   39.1250   27.2830 C   0  0  0  0  0  0  0  0  0  0  0  0
   -7.5930   43.8780   26.0540 C   0  0  0  0  0  0  0  0  0  0  0  0
   -2.1640   38.7460   27.7390 C   0  0  0  0  0  0  0  0  0  0  0  0
   -3.0630   39.2980   26.6480 C   0  0  3  0  0  0  0  0  0  0  0  0
    1.3330   39.9900   27.9390 O   0  0  0  0  0  0  0  0  0  0  0  0
   -4.3480   40.0160   27.0460 C   0  0  0  0  0  0  0  0  0  0  0  0
    0.2930   39.1390   28.4310 C   0  0  0  0  0  0  0  0  0  0  0  0
    0.7940   37.8480   28.5590 O   0  0  0  0  0  0  0  0  0  0  0  0
   -7.6610   42.8330   25.1360 C   0  0  0  0  0  0  0  0  0  0  0  0
   -5.3920   43.2870   26.6480 O   0  0  0  0  0  0  0  0  0  0  0  0
   -0.2220   39.5860   29.6040 O   0  0  0  0  0  0  0  0  0  0  0  0
   -0.9500   40.5130   26.6630 C   0  0  0  0  0  0  0  0  0  0  0  0
  1  4  2  0  0  0  0
  1  9  1  0  0  0  0
  1 17  1  0  0  0  0
  2  3  1  0  0  0  0
  2  7  2  0  0  0  0
  2 17  1  0  0  0  0
  3  5  1  0  0  0  0
  3 13  1  0  0  0  0
  5  6  1  0  0  0  0
  6 11  1  0  0  0  0
  6 19  1  0  0  0  0
  7 16  1  0  0  0  0
  8 10  1  0  0  0  0
  8 14  1  0  0  0  0
  8 19  1  0  0  0  0
  9 16  1  0  0  0  0
 10 11  1  0  0  0  0
 11 13  1  0  0  0  0
 12 14  1  0  0  0  0
 14 15  1  0  0  0  0
 14 18  1  0  0  0  0
M  END
>  <Original_Directory>
3gj5_A_rec_3gj5_gdp_lig_tt_docked_0_pocket10

>  <Original_Filename>
3gj5_A_rec_3gj5_gdp_lig_tt_docked_0_pocket10_gen_sample_10.sdf

>  <Molecule_ID>
sample_10

>  <logS>
-2.0244

$$$$