/tmp/tmpbqz5txm3
  MOE2022           3D

 17 18  0  0  1  0  0  0  0  0999 V2000
  -28.4140   -2.5210   47.3720 C   0  0  0  0  0  0  0  0  0  0  0  0
  -25.5980   -1.2430   43.1450 O   0  0  0  0  0  0  0  0  0  0  0  0
  -28.2830   -2.4750   43.9670 O   0  0  0  0  0  0  0  0  0  0  0  0
  -30.0000    0.8870   49.2140 O   0  0  0  0  0  0  0  0  0  0  0  0
  -23.7460   -3.7120   45.1160 C   0  0  0  0  0  0  0  0  0  0  0  0
  -29.5640   -1.0570   46.2600 O   0  0  0  0  0  0  0  0  0  0  0  0
  -29.7760    0.7090   48.0150 C   0  0  0  0  0  0  0  0  0  0  0  0
  -25.7750   -3.1100   46.2620 C   0  0  0  0  0  0  0  0  0  0  0  0
  -29.6910    1.5950   47.1370 O   0  0  0  0  0  0  0  0  0  0  0  0
  -28.4130   -1.7800   46.2230 C   0  0  3  0  0  0  0  0  0  0  0  0
  -29.6710   -0.7520   47.5770 C   0  0  0  0  0  0  0  0  0  0  0  0
  -26.1800   -2.3700   45.1630 C   0  0  0  0  0  0  0  0  0  0  0  0
  -24.6450   -3.9150   46.1540 C   0  0  0  0  0  0  0  0  0  0  0  0
  -27.5740   -1.7870   44.9740 C   0  0  3  0  0  0  0  0  0  0  0  0
  -24.0180   -2.7650   44.1470 C   0  0  0  0  0  0  0  0  0  0  0  0
  -29.2760   -1.8630   48.2370 N   0  0  0  0  0  0  0  0  0  0  0  0
  -25.2450   -2.1040   44.1590 C   0  0  0  0  0  0  0  0  0  0  0  0
  1 10  1  0  0  0  0
  1 16  1  0  0  0  0
  2 17  1  0  0  0  0
  3 14  1  0  0  0  0
  4  7  1  0  0  0  0
  5 13  2  0  0  0  0
  5 15  1  0  0  0  0
  6 10  1  0  0  0  0
  6 11  1  0  0  0  0
  7  9  2  0  0  0  0
  7 11  1  0  0  0  0
  8 12  2  0  0  0  0
  8 13  1  0  0  0  0
 10 14  1  0  0  0  0
 11 16  2  0  0  0  0
 12 14  1  0  0  0  0
 12 17  1  0  0  0  0
 15 17  2  0  0  0  0
M  END
>  <Original_Directory>
4c4s_A_rec_4c4s_grx_lig_tt_docked_0_pocket10

>  <Original_Filename>
4c4s_A_rec_4c4s_grx_lig_tt_docked_0_pocket10_gen_sample_7.sdf

>  <Molecule_ID>
sample_7

>  <logS>
-1.44157

$$$$