/tmp/tmp9zldg7mh
  MOE2022           3D

 10  9  0  0  1  0  0  0  0  0999 V2000
   27.5540   -2.6450    6.9930 O   0  0  0  0  0  0  0  0  0  0  0  0
   26.0330   -1.6630   11.6870 P   0  0  0  0  0  0  0  0  0  0  0  0
   26.8120   -2.3210    7.9310 C   0  0  0  0  0  0  0  0  0  0  0  0
   24.8700   -0.8110   11.4900 O   0  0  0  0  0  0  0  0  0  0  0  0
   26.1100   -2.7930   10.2920 C   0  0  3  0  0  0  0  0  0  0  0  0
   25.6900   -1.7360    7.7330 O   0  0  0  0  0  0  0  0  0  0  0  0
   27.3580   -1.0020   11.8180 O   0  0  0  0  0  0  0  0  0  0  0  0
   25.2370   -3.8830   10.1320 O   0  0  0  0  0  0  0  0  0  0  0  0
   25.8990   -2.5910   12.8610 O   0  0  0  0  0  0  0  0  0  0  0  0
   27.2710   -2.5550    9.3550 C   0  0  0  0  0  0  0  0  0  0  0  0
  1  3  2  0  0  0  0
  2  4  2  0  0  0  0
  2  5  1  0  0  0  0
  2  7  1  0  0  0  0
  2  9  1  0  0  0  0
  3  6  1  0  0  0  0
  3 10  1  0  0  0  0
  5  8  1  0  0  0  0
  5 10  1  0  0  0  0
M  END
>  <Original_Directory>
2vxn_A_rec_2vxn_pgh_lig_tt_min_0_pocket10

>  <Original_Filename>
2vxn_A_rec_2vxn_pgh_lig_tt_min_0_pocket10_gen_sample_5.sdf

>  <Molecule_ID>
sample_5

>  <logS>
1.52303

$$$$