/tmp/tmp5kurpqwx
  MOE2022           3D

 10 10  0  0  0  0  0  0  0  0999 V2000
   27.4070   -2.3930   11.0680 C   0  0  0  0  0  0  0  0  0  0  0  0
   25.2340   -1.0100   11.7600 C   0  0  0  0  0  0  0  0  0  0  0  0
   28.4420   -4.0200    8.7270 O   0  0  0  0  0  0  0  0  0  0  0  0
   26.3120   -4.4850    8.9900 O   0  0  0  0  0  0  0  0  0  0  0  0
   27.1510   -2.3070   12.3590 N   0  0  0  0  0  0  0  0  0  0  0  0
   27.2420   -3.6870    8.7740 C   0  0  0  0  0  0  0  0  0  0  0  0
   26.6170   -1.8960   10.0540 C   0  0  0  0  0  0  0  0  0  0  0  0
   26.8850   -2.2510    8.6250 C   0  0  0  0  0  0  0  0  0  0  0  0
   26.1100   -1.5370   12.6720 C   0  0  0  0  0  0  0  0  0  0  0  0
   25.4520   -1.2630   10.4130 C   0  0  0  0  0  0  0  0  0  0  0  0
  1  5  2  0  0  0  0
  1  7  1  0  0  0  0
  2  9  2  0  0  0  0
  2 10  1  0  0  0  0
  3  6  2  0  0  0  0
  4  6  1  0  0  0  0
  5  9  1  0  0  0  0
  6  8  1  0  0  0  0
  7  8  1  0  0  0  0
  7 10  2  0  0  0  0
M  END
>  <Original_Directory>
2vxn_A_rec_2vxn_pgh_lig_tt_min_0_pocket10

>  <Original_Filename>
2vxn_A_rec_2vxn_pgh_lig_tt_min_0_pocket10_gen_sample_7.sdf

>  <Molecule_ID>
sample_7

>  <logS>
-0.15761

$$$$