/tmp/tmpx_85n72j
  MOE2022           3D

 16 17  0  0  1  0  0  0  0  0999 V2000
   13.9920    3.3750   37.6240 O   0  0  0  0  0  0  0  0  0  0  0  0
   12.6500    4.6560   35.2660 C   0  0  3  0  0  0  0  0  0  0  0  0
   16.4100    3.8700   33.1150 O   0  0  0  0  0  0  0  0  0  0  0  0
   14.9970    5.9260   35.0400 O   0  0  0  0  0  0  0  0  0  0  0  0
   13.9630    4.7950   37.4830 C   0  0  3  0  0  0  0  0  0  0  0  0
   15.7000    3.2710   34.2170 N   0  0  0  0  0  0  0  0  0  0  0  0
   15.9760    5.2100   35.8300 C   0  0  2  0  0  0  0  0  0  0  0  0
   15.3910    5.2840   37.2680 C   0  0  0  0  0  0  0  0  0  0  0  0
   17.8580    5.9930   34.6110 O   0  0  0  0  0  0  0  0  0  0  0  0
   12.8630    3.3040   34.6140 C   0  0  0  0  0  0  0  0  0  0  0  0
   17.0570    6.1420   35.7030 O   0  0  0  0  0  0  0  0  0  0  0  0
   12.8900    5.2260   36.5920 N   0  0  0  0  0  0  0  0  0  0  0  0
   14.2490    3.6110   34.0090 C   0  0  3  0  0  0  0  0  0  0  0  0
   13.8480    4.9990   34.4670 O   0  0  0  0  0  0  0  0  0  0  0  0
   12.8260    2.7330   37.2660 O   0  0  0  0  0  0  0  0  0  0  0  0
   16.2560    3.8390   35.4080 O   0  0  0  0  0  0  0  0  0  0  0  0
  1  5  1  0  0  0  0
  1 15  1  0  0  0  0
  2 10  1  0  0  0  0
  2 12  1  0  0  0  0
  2 14  1  0  0  0  0
  3  6  1  0  0  0  0
  4  7  1  0  0  0  0
  5  8  1  0  0  0  0
  5 12  1  0  0  0  0
  6 13  1  0  0  0  0
  6 16  1  0  0  0  0
  7  8  1  0  0  0  0
  7 11  1  0  0  0  0
  7 16  1  0  0  0  0
  9 11  1  0  0  0  0
 10 13  1  0  0  0  0
 13 14  1  0  0  0  0
M  END
>  <Original_Directory>
2bvs_H_rec_4ud9_tys_lig_tt_min_0_pocket10

>  <Original_Filename>
2bvs_H_rec_4ud9_tys_lig_tt_min_0_pocket10_gen_sample_11.sdf

>  <Molecule_ID>
sample_11

>  <logS>
0.49972999

$$$$