/tmp/tmpt6f2k8gq
  MOE2022           3D

 29 30  0  0  1  0  0  0  0  0999 V2000
   14.9000    0.5730  116.1050 C   0  0  0  0  0  0  0  0  0  0  0  0
   16.3380   -3.7090  117.1740 O   0  0  0  0  0  0  0  0  0  0  0  0
    5.5800    3.2380  112.3320 C   0  0  0  0  0  0  0  0  0  0  0  0
   15.5970    6.5850  112.2000 O   0  0  0  0  0  0  0  0  0  0  0  0
   11.2770    1.8220  116.9240 C   0  0  0  0  0  0  0  0  0  0  0  0
   14.2330   -4.1830  116.1610 C   0  0  0  0  0  0  0  0  0  0  0  0
   13.7500    1.5170  116.2250 C   0  0  3  0  0  0  0  0  0  0  0  0
    7.5900    3.4940  116.4490 N   0  0  0  0  0  0  0  0  0  0  0  0
   15.7800    1.1120  115.1600 C   0  0  0  0  0  0  0  0  0  0  0  0
    6.3060    3.5540  115.9200 C   0  0  0  0  0  0  0  0  0  0  0  0
    5.3510    4.3420  110.0040 C   0  0  0  0  0  0  0  0  0  0  0  0
   16.1720    5.5420  112.5890 C   0  0  0  0  0  0  0  0  0  0  0  0
    3.7160    4.4280  111.8660 N   0  0  0  0  0  0  0  0  0  0  0  0
   14.8910    5.2770  114.6650 O   0  0  0  0  0  0  0  0  0  0  0  0
   15.1790   -0.7360  116.8310 C   0  0  0  0  0  0  0  0  0  0  0  0
   17.2580    5.1090  112.1150 O   0  0  0  0  0  0  0  0  0  0  0  0
   12.6290    1.4690  117.1680 C   0  0  0  0  0  0  0  0  0  0  0  0
    4.9050    3.5450  113.5400 C   0  0  0  0  0  0  0  0  0  0  0  0
    3.6540    4.0740  113.1780 C   0  0  0  0  0  0  0  0  0  0  0  0
   16.0070    3.2740  113.7990 C   0  0  0  0  0  0  0  0  0  0  0  0
   13.9620    2.5330  115.2430 C   0  0  0  0  0  0  0  0  0  0  0  0
   15.3480   -3.2650  116.5800 C   0  0  0  0  0  0  0  0  0  0  0  0
   15.4090    4.6360  113.5580 C   0  0  3  0  0  0  0  0  0  0  0  0
    4.8190    3.8350  111.3220 C   0  0  3  0  0  0  0  0  0  0  0  0
    9.8880    2.1680  116.9280 C   0  0  0  0  0  0  0  0  0  0  0  0
   15.3940   -1.9090  115.8840 C   0  0  0  0  0  0  0  0  0  0  0  0
    8.8490    3.0050  116.8410 N   0  0  0  0  0  0  0  0  0  0  0  0
   15.2180    2.2880  114.6190 C   0  0  0  0  0  0  0  0  0  0  0  0
    5.4580    3.7630  114.8710 C   0  0  0  0  0  0  0  0  0  0  0  0
  1  7  1  0  0  0  0
  1  9  2  0  0  0  0
  1 15  1  0  0  0  0
  2 22  2  0  0  0  0
  3 18  1  0  0  0  0
  3 24  1  0  0  0  0
  4 12  1  0  0  0  0
  5 17  2  0  0  0  0
  5 25  2  0  0  0  0
  6 22  1  0  0  0  0
  7 17  1  0  0  0  0
  7 21  1  0  0  0  0
  8 10  1  0  0  0  0
  8 27  1  0  0  0  0
  9 28  1  0  0  0  0
 10 29  2  0  0  0  0
 11 24  1  0  0  0  0
 12 16  2  0  0  0  0
 12 23  1  0  0  0  0
 13 19  1  0  0  0  0
 13 24  1  0  0  0  0
 14 23  1  0  0  0  0
 15 26  1  0  0  0  0
 18 19  1  0  0  0  0
 18 29  2  0  0  0  0
 20 23  1  0  0  0  0
 20 28  1  0  0  0  0
 21 28  2  0  0  0  0
 22 26  1  0  0  0  0
 25 27  1  0  0  0  0
M  END
>  <Original_Directory>
3jpp_A_rec_5wny_b7p_lig_tt_docked_0_pocket10

>  <Original_Filename>
3jpp_A_rec_5wny_b7p_lig_tt_docked_0_pocket10_gen_sample_4.sdf

>  <Molecule_ID>
sample_4

>  <logS>
-0.35409999

$$$$