/tmp/tmpfqgqgspr
  MOE2022           3D

 29 32  0  0  1  0  0  0  0  0999 V2000
   40.3010  -25.7930   -2.7830 N   0  0  0  0  0  0  0  0  0  0  0  0
   42.1400  -24.9300   -7.0260 O   0  0  0  0  0  0  0  0  0  0  0  0
   39.6100  -22.0440   -6.0100 C   0  0  0  0  0  0  0  0  0  0  0  0
   40.2700  -27.1240   -4.7520 N   0  0  0  0  0  0  0  0  0  0  0  0
   41.8600  -22.9200   -5.7900 C   0  0  0  0  0  0  0  0  0  0  0  0
   35.5770  -30.1410   -1.7430 C   0  0  0  0  0  0  0  0  0  0  0  0
   41.7180  -25.1310   -4.6920 C   0  0  0  0  0  0  0  0  0  0  0  0
   39.1410  -26.4490   -0.9440 O   0  0  0  0  0  0  0  0  0  0  0  0
   39.4090  -26.6140   -2.1290 C   0  0  0  0  0  0  0  0  0  0  0  0
   40.9330  -21.9070   -5.5680 C   0  0  0  0  0  0  0  0  0  0  0  0
   38.7760  -27.6500   -2.9630 C   0  0  3  0  0  0  0  0  0  0  0  0
   39.2950  -27.9070   -4.2220 C   0  0  0  0  0  0  0  0  0  0  0  0
   33.4140  -31.3480   -1.5870 C   0  0  0  0  0  0  0  0  0  0  0  0
   35.5390  -32.5110   -1.4910 C   0  0  0  0  0  0  0  0  0  0  0  0
   35.3340  -29.1640   -2.7420 C   0  0  0  0  0  0  0  0  0  0  0  0
   34.8090  -31.3480   -1.6340 C   0  0  0  0  0  0  0  0  0  0  0  0
   32.9920  -33.8120   -1.5120 C   0  0  0  0  0  0  0  0  0  0  0  0
   36.6730  -29.9460   -0.9110 C   0  0  0  0  0  0  0  0  0  0  0  0
   37.7250  -29.1410   -1.3240 C   0  0  0  0  0  0  0  0  0  0  0  0
   34.2020  -34.4590   -1.3590 C   0  0  0  0  0  0  0  0  0  0  0  0
   36.3580  -28.2970   -3.1210 C   0  0  0  0  0  0  0  0  0  0  0  0
   40.7160  -26.0620   -4.0580 C   0  0  0  0  0  0  0  0  0  0  0  0
   41.3930  -24.3350   -5.9660 C   0  0  2  0  0  0  0  0  0  0  0  0
   37.5920  -28.3520   -2.4610 C   0  0  0  0  0  0  0  0  0  0  0  0
   35.3590  -33.7880   -1.2560 N   0  0  0  0  0  0  0  0  0  0  0  0
   39.1460  -23.2940   -6.4050 C   0  0  0  0  0  0  0  0  0  0  0  0
   32.6450  -32.4980   -1.5560 C   0  0  0  0  0  0  0  0  0  0  0  0
   39.9640  -24.4170   -6.3860 C   0  0  0  0  0  0  0  0  0  0  0  0
   34.1090  -29.1120   -3.3190 O   0  0  0  0  0  0  0  0  0  0  0  0
  1  9  1  0  0  0  0
  1 22  2  0  0  0  0
  2 23  1  0  0  0  0
  3 10  2  0  0  0  0
  3 26  1  0  0  0  0
  4 12  2  0  0  0  0
  4 22  1  0  0  0  0
  5 10  1  0  0  0  0
  5 23  1  0  0  0  0
  6 15  1  0  0  0  0
  6 16  1  0  0  0  0
  6 18  2  0  0  0  0
  7 22  1  0  0  0  0
  7 23  1  0  0  0  0
  8  9  2  0  0  0  0
  9 11  1  0  0  0  0
 11 12  1  0  0  0  0
 11 24  1  0  0  0  0
 13 16  2  0  0  0  0
 13 27  1  0  0  0  0
 14 16  1  0  0  0  0
 14 25  2  0  0  0  0
 15 21  2  0  0  0  0
 15 29  1  0  0  0  0
 17 20  2  0  0  0  0
 17 27  1  0  0  0  0
 18 19  1  0  0  0  0
 19 24  2  0  0  0  0
 20 25  1  0  0  0  0
 21 24  1  0  0  0  0
 23 28  1  0  0  0  0
 26 28  2  0  0  0  0
M  END
>  <Original_Directory>
4rzv_B_rec_3tv6_b0r_lig_tt_min_0_pocket10

>  <Original_Filename>
4rzv_B_rec_3tv6_b0r_lig_tt_min_0_pocket10_gen_sample_1.sdf

>  <Molecule_ID>
sample_1

>  <logS>
-3.71947

$$$$