/tmp/tmp9l48en_4
  MOE2022           3D

 19 22  0  0  1  0  0  0  0  0999 V2000
   -9.5230  -28.0460    5.1830 C   0  0  0  0  0  0  0  0  0  0  0  0
  -14.3780  -27.8570    0.9070 C   0  0  0  0  0  0  0  0  0  0  0  0
   -7.0240  -27.2500    5.2860 C   0  0  0  0  0  0  0  0  0  0  0  0
   -8.4090  -27.0190    3.3170 C   0  0  0  0  0  0  0  0  0  0  0  0
  -14.8010  -28.9340    2.9860 C   0  0  0  0  0  0  0  0  0  0  0  0
   -7.2930  -26.8660    2.5120 C   0  0  0  0  0  0  0  0  0  0  0  0
   -9.7060  -27.6530    2.8380 C   0  0  3  0  0  0  0  0  0  0  0  0
  -10.4430  -26.7780    1.8220 C   0  0  0  0  0  0  0  0  0  0  0  0
  -10.5570  -27.5550    4.1350 C   0  0  3  0  0  0  0  0  0  0  0  0
  -12.6570  -27.5640    2.6940 C   0  0  3  0  0  0  0  0  0  0  0  0
   -5.9050  -26.9580    4.4920 C   0  0  0  0  0  0  0  0  0  0  0  0
  -13.9680  -28.1450    2.2080 C   0  0  0  0  0  0  0  0  0  0  0  0
   -8.2740  -27.3360    4.6720 C   0  0  0  0  0  0  0  0  0  0  0  0
  -11.8950  -28.2830    3.8380 C   0  0  0  0  0  0  0  0  0  0  0  0
  -16.1060  -29.5040    1.0350 C   0  0  0  0  0  0  0  0  0  0  0  0
  -11.7580  -27.4550    1.4470 C   0  0  0  0  0  0  0  0  0  0  0  0
  -15.2760  -28.7040    0.2560 C   0  0  0  0  0  0  0  0  0  0  0  0
  -15.8650  -29.6270    2.3980 C   0  0  0  0  0  0  0  0  0  0  0  0
   -6.0260  -26.9450    3.1060 C   0  0  0  0  0  0  0  0  0  0  0  0
  1  9  1  0  0  0  0
  1 13  1  0  0  0  0
  2 12  2  0  0  0  0
  2 17  1  0  0  0  0
  3 11  2  0  0  0  0
  3 13  1  0  0  0  0
  4  6  1  0  0  0  0
  4  7  1  0  0  0  0
  4 13  2  0  0  0  0
  5 12  1  0  0  0  0
  5 18  2  0  0  0  0
  6 19  2  0  0  0  0
  7  8  1  0  0  0  0
  7  9  1  0  0  0  0
  8 16  1  0  0  0  0
  9 14  1  0  0  0  0
 10 12  1  0  0  0  0
 10 14  1  0  0  0  0
 10 16  1  0  0  0  0
 11 19  1  0  0  0  0
 15 17  2  0  0  0  0
 15 18  1  0  0  0  0
M  END
>  <Original_Directory>
5mxk_A_rec_5mxv_k3t_lig_it2_tt_docked_6_pocket10

>  <Original_Filename>
5mxk_A_rec_5mxv_k3t_lig_it2_tt_docked_6_pocket10_gen_sample_5.sdf

>  <Molecule_ID>
sample_5

>  <logS>
-6.2069001

$$$$