/tmp/tmple17h7o9
  MOE2022           3D

 13 14  0  0  0  0  0  0  0  0999 V2000
   11.0480   -5.6770    5.0590 C   0  0  0  0  0  0  0  0  0  0  0  0
   11.6790   -4.4330    4.9770 C   0  0  0  0  0  0  0  0  0  0  0  0
   12.9980   -4.3270    5.4040 C   0  0  0  0  0  0  0  0  0  0  0  0
   11.7390   -6.7460    5.6060 C   0  0  0  0  0  0  0  0  0  0  0  0
   12.9810   -6.5020    6.1840 C   0  0  0  0  0  0  0  0  0  0  0  0
   14.7010   -2.9270    6.3220 C   0  0  0  0  0  0  0  0  0  0  0  0
   13.6780   -5.4330    5.7520 N   0  0  0  0  0  0  0  0  0  0  0  0
   13.3670   -2.0360    4.5940 C   0  0  0  0  0  0  0  0  0  0  0  0
   14.1260   -0.6140    6.3670 C   0  0  0  0  0  0  0  0  0  0  0  0
   13.2040   -2.1550    3.2590 N   0  0  0  0  0  0  0  0  0  0  0  0
   14.9560   -1.6490    6.7970 C   0  0  0  0  0  0  0  0  0  0  0  0
   13.3570   -0.7900    5.2180 C   0  0  0  0  0  0  0  0  0  0  0  0
   13.7610   -3.1430    5.3370 N   0  0  0  0  0  0  0  0  0  0  0  0
  1  2  2  0  0  0  0
  1  4  1  0  0  0  0
  2  3  1  0  0  0  0
  3  7  2  0  0  0  0
  3 13  1  0  0  0  0
  4  5  2  0  0  0  0
  5  7  1  0  0  0  0
  6 11  1  0  0  0  0
  6 13  1  0  0  0  0
  8 10  1  0  0  0  0
  8 12  2  0  0  0  0
  8 13  1  0  0  0  0
  9 11  2  0  0  0  0
  9 12  1  0  0  0  0
M  END
>  <Original_Directory>
4yyi_B_rec_5ji8_6kt_lig_tt_docked_2_pocket10

>  <Original_Filename>
4yyi_B_rec_5ji8_6kt_lig_tt_docked_2_pocket10_gen_sample_19.sdf

>  <Molecule_ID>
sample_19

>  <logS>
-1.33876

$$$$