/tmp/tmp9dgcq2y_
  MOE2022           3D

 26 28  0  0  1  0  0  0  0  0999 V2000
    1.2270  -18.1260   64.8410 O   0  0  0  0  0  0  0  0  0  0  0  0
    3.2230  -17.6070   62.0500 C   0  0  0  0  0  0  0  0  0  0  0  0
    5.4490   -8.2800   62.6010 N   0  0  0  0  0  0  0  0  0  0  0  0
    3.2410   -7.7910   60.5570 N   0  0  0  0  0  0  0  0  0  0  0  0
    1.8820  -14.1270   61.5510 O   0  0  0  0  0  0  0  0  0  0  0  0
    1.5590  -18.5060   63.5950 C   0  0  0  0  0  0  0  0  0  0  0  0
    6.0860   -8.6680   61.4980 C   0  0  0  0  0  0  0  0  0  0  0  0
    4.0960  -15.9580   59.9280 O   0  0  0  0  0  0  0  0  0  0  0  0
    2.9600  -15.8730   60.3580 C   0  0  0  0  0  0  0  0  0  0  0  0
    5.8170   -9.6180   59.2020 N   0  0  0  0  0  0  0  0  0  0  0  0
    4.2740   -7.6870   62.7120 C   0  0  0  0  0  0  0  0  0  0  0  0
    2.5920  -12.2970   58.9760 C   0  0  0  0  0  0  0  0  0  0  0  0
    1.1280  -17.5010   60.8840 C   0  0  0  0  0  0  0  0  0  0  0  0
    2.8450  -18.3390   63.1410 C   0  0  0  0  0  0  0  0  0  0  0  0
    0.3900  -18.4750   61.4950 C   0  0  0  0  0  0  0  0  0  0  0  0
    2.6240  -11.0500   59.8370 C   0  0  0  0  0  0  0  0  0  0  0  0
   -0.4630  -19.6720   63.3820 O   0  0  0  0  0  0  0  0  0  0  0  0
    3.3720   -7.2800   61.7840 C   0  0  0  0  0  0  0  0  0  0  0  0
    3.9800   -8.8470   60.1220 C   0  0  0  0  0  0  0  0  0  0  0  0
    2.2940  -14.5010   60.2590 C   0  0  3  0  0  0  0  0  0  0  0  0
    4.7450  -10.3430   58.6810 N   0  0  0  0  0  0  0  0  0  0  0  0
    2.3810  -17.0130   61.1360 C   0  0  0  0  0  0  0  0  0  0  0  0
    3.2530  -13.4760   59.6570 C   0  0  0  0  0  0  0  0  0  0  0  0
    0.5240  -18.9360   62.7820 C   0  0  0  0  0  0  0  0  0  0  0  0
    3.6540  -10.0500   59.4100 C   0  0  3  0  0  0  0  0  0  0  0  0
    5.3990   -8.9610   60.3130 C   0  0  0  0  0  0  0  0  0  0  0  0
  1  6  1  0  0  0  0
  2 14  1  0  0  0  0
  2 22  2  0  0  0  0
  3  7  2  0  0  0  0
  3 11  1  0  0  0  0
  4 18  2  0  0  0  0
  4 19  1  0  0  0  0
  5 20  1  0  0  0  0
  6 14  1  0  0  0  0
  6 24  2  0  0  0  0
  7 26  1  0  0  0  0
  8  9  2  0  0  0  0
  9 20  1  0  0  0  0
  9 22  1  0  0  0  0
 10 21  1  0  0  0  0
 10 26  1  0  0  0  0
 11 18  1  0  0  0  0
 12 16  1  0  0  0  0
 12 23  1  0  0  0  0
 13 15  2  0  0  0  0
 13 22  1  0  0  0  0
 15 24  1  0  0  0  0
 16 25  1  0  0  0  0
 17 24  1  0  0  0  0
 19 25  1  0  0  0  0
 19 26  2  0  0  0  0
 20 23  1  0  0  0  0
 21 25  1  0  0  0  0
M  END
>  <Original_Directory>
4m73_A_rec_4m6y_sah_lig_tt_min_0_pocket10

>  <Original_Filename>
4m73_A_rec_4m6y_sah_lig_tt_min_0_pocket10_gen_sample_4.sdf

>  <Molecule_ID>
sample_4

>  <logS>
-1.70253

$$$$