/tmp/tmpchm124b7
  MOE2022           3D

 16 18  0  0  1  0  0  0  0  0999 V2000
   -1.8370   31.9570  -13.4600 O   0  0  0  0  0  0  0  0  0  0  0  0
   -1.4400   29.3020  -16.0150 C   0  0  0  0  0  0  0  0  0  0  0  0
   -1.8340   31.4820  -14.8010 C   0  0  3  0  0  0  0  0  0  0  0  0
   -8.3550   29.6320  -15.7980 O   0  0  0  0  0  0  0  0  0  0  0  0
   -2.6740   33.0760  -13.5410 C   0  0  0  0  0  0  0  0  0  0  0  0
   -5.0340   28.7100  -15.8700 C   0  0  3  0  0  0  0  0  0  0  0  0
   -6.2490   30.6910  -16.2210 C   0  0  0  0  0  0  0  0  0  0  0  0
   -1.0500   30.1940  -14.8500 C   0  0  0  0  0  0  0  0  0  0  0  0
   -6.3290   28.3710  -15.5210 C   0  0  0  0  0  0  0  0  0  0  0  0
   -4.9690   30.0360  -16.0890 N   0  0  0  0  0  0  0  0  0  0  0  0
   -3.6320   30.5010  -16.3190 C   0  0  3  0  0  0  0  0  0  0  0  0
   -3.6970   28.1800  -15.9380 C   0  0  0  0  0  0  0  0  0  0  0  0
   -3.2780   31.4270  -15.1880 C   0  0  0  0  0  0  0  0  0  0  0  0
   -7.1010   29.5850  -15.6420 C   0  0  0  0  0  0  0  0  0  0  0  0
   -2.8830   29.2680  -16.2100 N   0  0  0  0  0  0  0  0  0  0  0  0
   -3.3590   27.0250  -16.0620 O   0  0  0  0  0  0  0  0  0  0  0  0
  1  3  1  0  0  0  0
  1  5  1  0  0  0  0
  2  8  1  0  0  0  0
  2 15  1  0  0  0  0
  3  8  1  0  0  0  0
  3 13  1  0  0  0  0
  4 14  2  0  0  0  0
  6  9  1  0  0  0  0
  6 10  1  0  0  0  0
  6 12  1  0  0  0  0
  7 10  1  0  0  0  0
  7 14  1  0  0  0  0
  9 14  1  0  0  0  0
 10 11  1  0  0  0  0
 11 13  1  0  0  0  0
 11 15  1  0  0  0  0
 12 15  1  0  0  0  0
 12 16  2  0  0  0  0
M  END
>  <Original_Directory>
5nf6_A_rec_4nwd_2qd_lig_tt_min_0_pocket10

>  <Original_Filename>
5nf6_A_rec_4nwd_2qd_lig_tt_min_0_pocket10_gen_sample_19.sdf

>  <Molecule_ID>
sample_19

>  <logS>
-0.64170998

$$$$