/tmp/tmpkllodpq4
  MOE2022           3D

 32 34  0  0  1  0  0  0  0  0999 V2000
   -8.2090   71.3000   64.7960 C   0  0  0  0  0  0  0  0  0  0  0  0
   -3.7620   67.3320   67.3540 C   0  0  0  0  0  0  0  0  0  0  0  0
   -4.7130   64.6110   64.9630 P   0  0  0  0  0  0  0  0  0  0  0  0
   -9.5160   71.7370   64.8620 C   0  0  0  0  0  0  0  0  0  0  0  0
    0.7500   68.6370   71.7740 O   0  0  0  0  0  0  0  0  0  0  0  0
   -2.2420   68.7590   68.9500 C   0  0  0  0  0  0  0  0  0  0  0  0
  -10.5550   71.0170   65.3950 C   0  0  0  0  0  0  0  0  0  0  0  0
   -3.1130   68.2360   67.9900 C   0  0  0  0  0  0  0  0  0  0  0  0
   -7.5730   66.7810   66.0410 C   0  0  0  0  0  0  0  0  0  0  0  0
   -0.9390   69.1430   68.5970 C   0  0  0  0  0  0  0  0  0  0  0  0
   -4.9660   64.8470   66.5130 O   0  0  0  0  0  0  0  0  0  0  0  0
   -6.0370   64.5100   64.2480 O   0  0  0  0  0  0  0  0  0  0  0  0
   -3.9030   63.3720   64.8110 O   0  0  0  0  0  0  0  0  0  0  0  0
   -7.6250   70.2120   65.3870 C   0  0  0  0  0  0  0  0  0  0  0  0
   -5.9990   68.2390   67.0460 C   0  0  0  0  0  0  0  0  0  0  0  0
   -9.7330   68.1750   67.5420 O   0  0  0  0  0  0  0  0  0  0  0  0
   -7.1190   65.7920   66.8920 O   0  0  0  0  0  0  0  0  0  0  0  0
   -9.4570   69.0130   66.4800 C   0  0  0  0  0  0  0  0  0  0  0  0
   -5.1450   67.1670   67.2050 C   0  0  3  0  0  0  0  0  0  0  0  0
   -8.2160   66.5040   65.0390 O   0  0  0  0  0  0  0  0  0  0  0  0
   -0.2610   68.8350   70.8880 C   0  0  0  0  0  0  0  0  0  0  0  0
   -2.5850   68.8160   70.3050 C   0  0  3  0  0  0  0  0  0  0  0  0
  -10.5570   69.7510   65.9730 C   0  0  0  0  0  0  0  0  0  0  0  0
   -3.8760   68.9890   70.6990 O   0  0  0  0  0  0  0  0  0  0  0  0
   -7.2240   68.0670   66.4000 N   0  0  0  0  0  0  0  0  0  0  0  0
   -1.8920   67.9360   72.5460 C   0  0  0  0  0  0  0  0  0  0  0  0
   -1.5780   68.5890   71.2440 C   0  0  0  0  0  0  0  0  0  0  0  0
  -11.7950   69.1780   66.1210 O   0  0  0  0  0  0  0  0  0  0  0  0
    0.0530   69.1670   69.5750 C   0  0  0  0  0  0  0  0  0  0  0  0
   -3.9970   65.8190   64.4390 O   0  0  0  0  0  0  0  0  0  0  0  0
   -5.7480   65.7680   67.2540 C   0  0  3  0  0  0  0  0  0  0  0  0
   -8.1070   69.1220   66.0760 C   0  0  0  0  0  0  0  0  0  0  0  0
  1  4  2  0  0  0  0
  1 14  1  0  0  0  0
  2  8  2  0  0  0  0
  2 19  1  0  0  0  0
  3 11  1  0  0  0  0
  3 12  2  0  0  0  0
  3 13  1  0  0  0  0
  3 30  1  0  0  0  0
  4  7  1  0  0  0  0
  5 21  1  0  0  0  0
  6  8  2  0  0  0  0
  6 10  1  0  0  0  0
  6 22  1  0  0  0  0
  7 23  2  0  0  0  0
  9 17  1  0  0  0  0
  9 20  2  0  0  0  0
  9 25  1  0  0  0  0
 10 29  2  0  0  0  0
 11 31  1  0  0  0  0
 14 32  1  0  0  0  0
 15 19  1  0  0  0  0
 15 25  1  0  0  0  0
 16 18  1  0  0  0  0
 17 31  1  0  0  0  0
 18 23  1  0  0  0  0
 18 32  2  0  0  0  0
 19 31  1  0  0  0  0
 21 27  2  0  0  0  0
 21 29  1  0  0  0  0
 22 24  1  0  0  0  0
 22 27  1  0  0  0  0
 23 28  1  0  0  0  0
 25 32  1  0  0  0  0
 26 27  1  0  0  0  0
M  END
>  <Original_Directory>
3g11_A_rec_3g0y_p9a_lig_tt_min_0_pocket10

>  <Original_Filename>
3g11_A_rec_3g0y_p9a_lig_tt_min_0_pocket10_gen_sample_8.sdf

>  <Molecule_ID>
sample_8

>  <logS>
-1.1182899

$$$$