/tmp/tmp2ke416ou
  MOE2022           3D

 20 19  0  0  1  0  0  0  0  0999 V2000
   19.3400   21.8400  -56.4770 O   0  0  0  0  0  0  0  0  0  0  0  0
   18.1650   26.2460  -53.4370 C   0  0  0  0  0  0  0  0  0  0  0  0
   17.6510   25.2610  -54.4490 C   0  0  3  0  0  0  0  0  0  0  0  0
   19.4940   28.2120  -53.3140 C   0  0  3  0  0  0  0  0  0  0  0  0
   18.7140   24.7520  -55.2210 C   0  0  3  0  0  0  0  0  0  0  0  0
   20.7300   23.3720  -55.2810 C   0  0  0  0  0  0  0  0  0  0  0  0
   20.1100   28.2900  -51.0710 C   0  0  0  0  0  0  0  0  0  0  0  0
   18.8800   28.8630  -50.9390 O   0  0  0  0  0  0  0  0  0  0  0  0
   20.8320   28.0660  -50.1000 O   0  0  0  0  0  0  0  0  0  0  0  0
   16.8210   24.3060  -53.8430 O   0  0  0  0  0  0  0  0  0  0  0  0
   17.2050   28.5580  -53.7760 O   0  0  0  0  0  0  0  0  0  0  0  0
   18.1270   28.4110  -52.7260 C   0  0  0  0  0  0  0  0  0  0  0  0
   20.5190   28.0940  -52.3530 O   0  0  0  0  0  0  0  0  0  0  0  0
   17.8190   26.0250  -52.0930 O   0  0  0  0  0  0  0  0  0  0  0  0
   19.0040   22.0450  -54.3530 O   0  0  0  0  0  0  0  0  0  0  0  0
   19.2530   26.9720  -53.9170 O   0  0  0  0  0  0  0  0  0  0  0  0
   20.1500   24.6990  -54.7880 C   0  0  3  0  0  0  0  0  0  0  0  0
   19.6560   22.3220  -55.3850 C   0  0  0  0  0  0  0  0  0  0  0  0
   18.5090   24.5370  -56.5260 O   0  0  0  0  0  0  0  0  0  0  0  0
   20.2090   24.6920  -53.3670 O   0  0  0  0  0  0  0  0  0  0  0  0
  1 18  2  0  0  0  0
  2  3  1  0  0  0  0
  2 14  2  0  0  0  0
  2 16  1  0  0  0  0
  3  5  1  0  0  0  0
  3 10  1  0  0  0  0
  4 12  1  0  0  0  0
  4 13  1  0  0  0  0
  4 16  1  0  0  0  0
  5 17  1  0  0  0  0
  5 19  1  0  0  0  0
  6 17  1  0  0  0  0
  6 18  1  0  0  0  0
  7  8  2  0  0  0  0
  7  9  1  0  0  0  0
  7 13  1  0  0  0  0
 11 12  1  0  0  0  0
 15 18  1  0  0  0  0
 17 20  1  0  0  0  0
M  END
>  <Original_Directory>
1tys_A_rec_1jut_ump_lig_tt_docked_0_pocket10

>  <Original_Filename>
1tys_A_rec_1jut_ump_lig_tt_docked_0_pocket10_gen_sample_13.sdf

>  <Molecule_ID>
sample_13

>  <logS>
0.98030001

$$$$