/tmp/tmp0nqdgnek
  MOE2022           3D

 20 20  0  0  1  0  0  0  0  0999 V2000
   17.7060   25.5300  -54.5610 C   0  0  3  0  0  0  0  0  0  0  0  0
   18.7030   23.7250  -56.6350 O   0  0  0  0  0  0  0  0  0  0  0  0
   18.7310   26.5200  -54.0720 C   0  0  3  0  0  0  0  0  0  0  0  0
   19.8770   22.4110  -55.0520 C   0  0  0  0  0  0  0  0  0  0  0  0
   20.2650   28.9250  -51.4030 P   0  0  0  0  0  0  0  0  0  0  0  0
   18.9380   23.5430  -55.4360 C   0  0  0  0  0  0  0  0  0  0  0  0
   18.4150   27.3210  -52.7930 C   0  0  0  0  0  0  0  0  0  0  0  0
   20.1660   26.0930  -54.0290 C   0  0  0  0  0  0  0  0  0  0  0  0
   17.3010   25.7900  -55.8870 O   0  0  0  0  0  0  0  0  0  0  0  0
   17.5940   26.5490  -51.9460 O   0  0  0  0  0  0  0  0  0  0  0  0
   19.4060   30.0290  -51.9180 O   0  0  0  0  0  0  0  0  0  0  0  0
   20.7900   26.7670  -52.8240 C   0  0  0  0  0  0  0  0  0  0  0  0
   20.2670   28.5990  -49.9460 O   0  0  0  0  0  0  0  0  0  0  0  0
   21.7150   29.2090  -51.7410 O   0  0  0  0  0  0  0  0  0  0  0  0
   19.7360   27.5810  -52.2330 N   0  0  0  0  0  0  0  0  0  0  0  0
   19.6270   21.7700  -54.0200 O   0  0  0  0  0  0  0  0  0  0  0  0
   17.6880   28.4600  -53.1100 O   0  0  0  0  0  0  0  0  0  0  0  0
   16.8390   23.3160  -54.2250 O   0  0  0  0  0  0  0  0  0  0  0  0
   18.0550   24.0570  -54.3080 C   0  0  3  0  0  0  0  0  0  0  0  0
   20.8570   22.1630  -55.7740 O   0  0  0  0  0  0  0  0  0  0  0  0
  1  3  1  0  0  0  0
  1  9  1  0  0  0  0
  1 19  1  0  0  0  0
  2  6  2  0  0  0  0
  3  7  1  0  0  0  0
  3  8  1  0  0  0  0
  4  6  1  0  0  0  0
  4 16  1  0  0  0  0
  4 20  2  0  0  0  0
  5 11  2  0  0  0  0
  5 13  1  0  0  0  0
  5 14  1  0  0  0  0
  5 15  1  0  0  0  0
  6 19  1  0  0  0  0
  7 10  1  0  0  0  0
  7 15  1  0  0  0  0
  7 17  1  0  0  0  0
  8 12  1  0  0  0  0
 12 15  1  0  0  0  0
 18 19  1  0  0  0  0
M  END
>  <Original_Directory>
1tys_A_rec_1jut_ump_lig_tt_docked_0_pocket10

>  <Original_Filename>
1tys_A_rec_1jut_ump_lig_tt_docked_0_pocket10_gen_sample_15.sdf

>  <Molecule_ID>
sample_15

>  <logS>
1.2502199

$$$$