/tmp/tmpvimw9fhm
  MOE2022           3D

 20 23  0  0  1  0  0  0  0  0999 V2000
   19.9490   23.0710  -55.2720 C   0  0  3  0  0  0  0  0  0  0  0  0
   19.1830   26.1500  -53.6120 C   0  0  3  0  0  0  0  0  0  0  0  0
   21.0850   28.4140  -52.2990 C   0  0  3  0  0  0  0  0  0  0  0  0
   19.6710   23.8090  -57.6090 O   0  0  0  0  0  0  0  0  0  0  0  0
   20.0430   21.7090  -54.8690 O   0  0  0  0  0  0  0  0  0  0  0  0
   18.3100   25.8750  -55.8920 C   0  0  0  0  0  0  0  0  0  0  0  0
   21.4500   29.2730  -51.2230 O   0  0  0  0  0  0  0  0  0  0  0  0
   19.0190   23.3010  -56.4640 C   0  0  0  0  0  0  0  0  0  0  0  0
   18.9380   28.1560  -55.0980 C   0  0  0  0  0  0  0  0  0  0  0  0
   18.9740   26.7040  -54.8750 N   0  0  0  0  0  0  0  0  0  0  0  0
   20.3200   27.1850  -51.7990 C   0  0  0  0  0  0  0  0  0  0  0  0
   19.0030   23.8820  -54.3710 C   0  0  2  0  0  0  0  0  0  0  0  0
   19.6760   24.8940  -53.5640 N   0  0  0  0  0  0  0  0  0  0  0  0
   18.1650   22.1850  -56.7270 O   0  0  0  0  0  0  0  0  0  0  0  0
   20.4440   29.2420  -53.4210 C   0  0  0  0  0  0  0  0  0  0  0  0
   18.2650   28.1980  -52.6610 C   0  0  0  0  0  0  0  0  0  0  0  0
   18.9960   26.9250  -52.4030 N   0  0  0  0  0  0  0  0  0  0  0  0
   18.9800   28.9650  -53.7890 C   0  0  3  0  0  0  0  0  0  0  0  0
   18.2100   23.0520  -53.5400 O   0  0  0  0  0  0  0  0  0  0  0  0
   18.2630   24.3750  -55.6160 C   0  0  3  0  0  0  0  0  0  0  0  0
  1  5  1  0  0  0  0
  1  8  1  0  0  0  0
  1 12  1  0  0  0  0
  2 10  1  0  0  0  0
  2 13  1  0  0  0  0
  2 17  1  0  0  0  0
  3  7  1  0  0  0  0
  3 11  1  0  0  0  0
  3 15  1  0  0  0  0
  4  8  1  0  0  0  0
  6 10  1  0  0  0  0
  6 20  1  0  0  0  0
  8 14  1  0  0  0  0
  8 20  1  0  0  0  0
  9 10  1  0  0  0  0
  9 18  1  0  0  0  0
 11 17  1  0  0  0  0
 12 13  1  0  0  0  0
 12 19  1  0  0  0  0
 12 20  1  0  0  0  0
 15 18  1  0  0  0  0
 16 17  1  0  0  0  0
 16 18  1  0  0  0  0
M  END
>  <Original_Directory>
1tys_A_rec_1jut_ump_lig_tt_docked_0_pocket10

>  <Original_Filename>
1tys_A_rec_1jut_ump_lig_tt_docked_0_pocket10_gen_sample_17.sdf

>  <Molecule_ID>
sample_17

>  <logS>
1.36124

$$$$