/tmp/tmpxka8u448
  MOE2022           3D

 14 14  0  0  0  0  0  0  0  0999 V2000
   -0.6050   16.7710    0.2900 C   0  0  0  0  0  0  0  0  0  0  0  0
    0.1850   17.6830    0.9720 C   0  0  0  0  0  0  0  0  0  0  0  0
    2.4430   19.3980   -0.1490 O   0  0  0  0  0  0  0  0  0  0  0  0
    1.0750   17.2510    1.9410 C   0  0  0  0  0  0  0  0  0  0  0  0
   -0.3700   12.8020    1.4010 O   0  0  0  0  0  0  0  0  0  0  0  0
    1.6100   13.0790    2.2500 O   0  0  0  0  0  0  0  0  0  0  0  0
    1.2440   19.3740   -0.5100 C   0  0  0  0  0  0  0  0  0  0  0  0
   -0.5870   19.9580    0.8680 O   0  0  0  0  0  0  0  0  0  0  0  0
    0.1970   19.1000    0.5240 C   0  0  0  0  0  0  0  0  0  0  0  0
    0.5200   13.5370    1.8530 C   0  0  0  0  0  0  0  0  0  0  0  0
    0.4380   14.9820    1.5110 C   0  0  0  0  0  0  0  0  0  0  0  0
    1.1660   15.9050    2.2470 C   0  0  0  0  0  0  0  0  0  0  0  0
   -0.4700   15.4200    0.5610 C   0  0  0  0  0  0  0  0  0  0  0  0
    0.9320   19.3920   -1.7260 O   0  0  0  0  0  0  0  0  0  0  0  0
  1  2  1  0  0  0  0
  1 13  2  0  0  0  0
  2  4  2  0  0  0  0
  2  9  1  0  0  0  0
  3  7  1  0  0  0  0
  4 12  1  0  0  0  0
  5 10  2  0  0  0  0
  6 10  1  0  0  0  0
  7  9  1  0  0  0  0
  7 14  2  0  0  0  0
  8  9  2  0  0  0  0
 10 11  1  0  0  0  0
 11 12  2  0  0  0  0
 11 13  1  0  0  0  0
M  END
>  <Original_Directory>
3t3y_A_rec_3t3y_md6_lig_tt_min_0_pocket10

>  <Original_Filename>
3t3y_A_rec_3t3y_md6_lig_tt_min_0_pocket10_gen_sample_5.sdf

>  <Molecule_ID>
sample_5

>  <logS>
-1.65503

$$$$