/tmp/tmpdo6swnz3
  MOE2022           3D

 14 14  0  0  0  0  0  0  0  0999 V2000
    0.7040   20.3380   -0.1440 O   0  0  0  0  0  0  0  0  0  0  0  0
    0.6510   12.7620    1.8740 O   0  0  0  0  0  0  0  0  0  0  0  0
    2.4400   16.5420    2.4760 C   0  0  0  0  0  0  0  0  0  0  0  0
    0.5760   19.2070   -0.6770 C   0  0  0  0  0  0  0  0  0  0  0  0
   -1.3070   13.7060    1.4330 N   0  0  0  0  0  0  0  0  0  0  0  0
    1.8760   15.2810    2.4140 N   0  0  0  0  0  0  0  0  0  0  0  0
    1.8400   17.5680    1.6930 C   0  0  0  0  0  0  0  0  0  0  0  0
   -0.0490   13.7730    1.9280 C   0  0  0  0  0  0  0  0  0  0  0  0
   -0.1390   16.2330    1.6010 C   0  0  0  0  0  0  0  0  0  0  0  0
    3.6480   16.6160    2.7960 O   0  0  0  0  0  0  0  0  0  0  0  0
   -0.0700   18.1210    0.0920 C   0  0  0  0  0  0  0  0  0  0  0  0
    0.5950   17.3210    1.1200 C   0  0  0  0  0  0  0  0  0  0  0  0
    0.5920   15.1110    1.9430 C   0  0  0  0  0  0  0  0  0  0  0  0
    0.9620   18.9480   -1.8440 O   0  0  0  0  0  0  0  0  0  0  0  0
  1  4  1  0  0  0  0
  2  8  2  0  0  0  0
  3  6  1  0  0  0  0
  3  7  1  0  0  0  0
  3 10  2  0  0  0  0
  4 11  1  0  0  0  0
  4 14  2  0  0  0  0
  5  8  1  0  0  0  0
  6 13  2  0  0  0  0
  7 12  1  0  0  0  0
  8 13  1  0  0  0  0
  9 12  1  0  0  0  0
  9 13  1  0  0  0  0
 11 12  2  0  0  0  0
M  END
>  <Original_Directory>
3t3y_A_rec_3t3y_md6_lig_tt_min_0_pocket10

>  <Original_Filename>
3t3y_A_rec_3t3y_md6_lig_tt_min_0_pocket10_gen_sample_15.sdf

>  <Molecule_ID>
sample_15

>  <logS>
-1.10646

$$$$