/tmp/tmp6v87f01h
  MOE2022           3D

 18 19  0  0  1  0  0  0  0  0999 V2000
   -4.5210   -2.1670   10.6600 C   0  0  0  0  0  0  0  0  0  0  0  0
   -3.0880    1.6420   12.3870 O   0  0  0  0  0  0  0  0  0  0  0  0
   -1.9590    4.2830    9.8880 C   0  0  0  0  0  0  0  0  0  0  0  0
   -3.3530    1.3620   11.2430 C   0  0  0  0  0  0  0  0  0  0  0  0
   -0.8700    5.1470    9.9520 C   0  0  0  0  0  0  0  0  0  0  0  0
   -7.3110   -0.6280   12.2190 O   0  0  0  0  0  0  0  0  0  0  0  0
   -0.4410    1.3300   11.4100 O   0  0  0  0  0  0  0  0  0  0  0  0
   -7.4610   -0.8110   10.0470 O   0  0  0  0  0  0  0  0  0  0  0  0
   -2.8320    2.0380   10.1500 O   0  0  0  0  0  0  0  0  0  0  0  0
   -5.7900   -2.0740   11.2020 C   0  0  0  0  0  0  0  0  0  0  0  0
    0.5350    3.3680   10.7340 C   0  0  0  0  0  0  0  0  0  0  0  0
    0.3700    4.6880   10.3560 C   0  0  0  0  0  0  0  0  0  0  0  0
   -0.5700    2.5350   10.7970 C   0  0  0  0  0  0  0  0  0  0  0  0
   -5.5940    0.3810   10.9800 C   0  0  0  0  0  0  0  0  0  0  0  0
   -1.8060    2.9620   10.3010 C   0  0  0  0  0  0  0  0  0  0  0  0
   -3.7230   -1.0380   10.5080 C   0  0  0  0  0  0  0  0  0  0  0  0
   -4.2450    0.2080   10.8700 C   0  0  3  0  0  0  0  0  0  0  0  0
   -6.5160   -0.7860   11.0850 C   0  0  0  0  0  0  0  0  0  0  0  0
  1 10  1  0  0  0  0
  1 16  2  0  0  0  0
  2  4  2  0  0  0  0
  3  5  1  0  0  0  0
  3 15  2  0  0  0  0
  4  9  1  0  0  0  0
  4 17  1  0  0  0  0
  5 12  2  0  0  0  0
  6 18  1  0  0  0  0
  7 13  1  0  0  0  0
  8 18  1  0  0  0  0
  9 15  1  0  0  0  0
 10 18  1  0  0  0  0
 11 12  1  0  0  0  0
 11 13  2  0  0  0  0
 13 15  1  0  0  0  0
 14 17  1  0  0  0  0
 14 18  1  0  0  0  0
 16 17  1  0  0  0  0
M  END
>  <Original_Directory>
4y39_A_rec_3pbz_f02_lig_tt_docked_0_pocket10

>  <Original_Filename>
4y39_A_rec_3pbz_f02_lig_tt_docked_0_pocket10_gen_sample_8.sdf

>  <Molecule_ID>
sample_8

>  <logS>
-1.5148

$$$$