/tmp/tmpg4yz02aw
  MOE2022           3D

 25 27  0  0  1  0  0  0  0  0999 V2000
   -9.2250   22.0630    9.5130 C   0  0  3  0  0  0  0  0  0  0  0  0
  -12.5490   20.7060    5.8770 O   0  0  0  0  0  0  0  0  0  0  0  0
  -11.0100   23.1380    8.2190 C   0  0  0  0  0  0  0  0  0  0  0  0
  -13.6970   17.1080    5.4470 C   0  0  0  0  0  0  0  0  0  0  0  0
  -11.4470   17.8510    4.7840 C   0  0  0  0  0  0  0  0  0  0  0  0
  -11.3360   19.6130    7.4480 N   0  0  0  0  0  0  0  0  0  0  0  0
  -12.4550   14.6250    4.3080 O   0  0  0  0  0  0  0  0  0  0  0  0
  -13.7990   13.5740    5.6810 O   0  0  0  0  0  0  0  0  0  0  0  0
   -9.7140   20.6850    9.0820 C   0  0  0  0  0  0  0  0  0  0  0  0
   -8.3340   22.0220   10.6040 O   0  0  0  0  0  0  0  0  0  0  0  0
  -11.6900   19.8890    6.1410 C   0  0  0  0  0  0  0  0  0  0  0  0
  -11.0810   20.6620    8.4160 C   0  0  3  0  0  0  0  0  0  0  0  0
  -16.4400   16.3340    5.1640 O   0  0  0  0  0  0  0  0  0  0  0  0
  -14.4170   18.0650    5.2440 O   0  0  0  0  0  0  0  0  0  0  0  0
  -11.9100   17.1530    7.1510 C   0  0  0  0  0  0  0  0  0  0  0  0
  -15.5640   15.5500    5.4240 C   0  0  0  0  0  0  0  0  0  0  0  0
  -13.4310   14.6030    5.0760 C   0  0  0  0  0  0  0  0  0  0  0  0
  -10.2520   23.2050    9.5570 C   0  0  3  0  0  0  0  0  0  0  0  0
  -11.9270   21.9290    8.4620 C   0  0  3  0  0  0  0  0  0  0  0  0
  -12.3650   17.3120    5.7760 N   0  0  0  0  0  0  0  0  0  0  0  0
  -14.1730   15.7970    5.3480 N   0  0  0  0  0  0  0  0  0  0  0  0
  -11.1730   18.2380    7.9160 C   0  0  0  0  0  0  0  0  0  0  0  0
  -11.3420   22.9590   10.6010 C   0  0  0  0  0  0  0  0  0  0  0  0
  -12.4050   22.1130    9.9080 C   0  0  0  0  0  0  0  0  0  0  0  0
  -11.0340   19.1870    5.1470 N   0  0  0  0  0  0  0  0  0  0  0  0
  1  9  1  0  0  0  0
  1 10  1  0  0  0  0
  1 18  1  0  0  0  0
  2 11  2  0  0  0  0
  3 18  1  0  0  0  0
  3 19  1  0  0  0  0
  4 14  2  0  0  0  0
  4 20  1  0  0  0  0
  4 21  1  0  0  0  0
  5 20  1  0  0  0  0
  5 25  1  0  0  0  0
  6 11  1  0  0  0  0
  6 12  1  0  0  0  0
  6 22  1  0  0  0  0
  7 17  2  0  0  0  0
  8 17  1  0  0  0  0
  9 12  1  0  0  0  0
 11 25  1  0  0  0  0
 12 19  1  0  0  0  0
 13 16  2  0  0  0  0
 15 20  1  0  0  0  0
 15 22  1  0  0  0  0
 16 21  1  0  0  0  0
 17 21  1  0  0  0  0
 18 23  1  0  0  0  0
 19 24  1  0  0  0  0
 23 24  1  0  0  0  0
M  END
>  <Original_Directory>
5lh8_A_rec_3gy3_pnt_lig_tt_docked_4_pocket10

>  <Original_Filename>
5lh8_A_rec_3gy3_pnt_lig_tt_docked_4_pocket10_gen_sample_10.sdf

>  <Molecule_ID>
sample_10

>  <logS>
-0.54475999

$$$$