/tmp/tmp67tsd9ao
  MOE2022           3D

 32 37  0  0  1  0  0  0  0  0999 V2000
   56.5460  101.6050   43.4530 N   0  0  0  0  0  0  0  0  0  0  0  0
   55.5320  100.1430   42.0980 O   0  0  0  0  0  0  0  0  0  0  0  0
   53.1050  104.6340   32.3540 C   0  0  0  0  0  0  0  0  0  0  0  0
   53.7850  103.7520   41.8680 C   0  0  0  0  0  0  0  0  0  0  0  0
   53.4680  109.6330   34.2620 N   0  0  0  0  0  0  0  0  0  0  0  0
   55.4410  101.4850   42.5070 C   0  0  1  0  0  0  0  0  0  0  0  0
   54.3580  110.7720   36.1450 C   0  0  0  0  0  0  0  0  0  0  0  0
   55.0150  103.5530   41.2400 C   0  0  0  0  0  0  0  0  0  0  0  0
   53.5510  106.3040   34.1840 C   0  0  0  0  0  0  0  0  0  0  0  0
   52.4890  108.6270   33.8520 C   0  0  3  0  0  0  0  0  0  0  0  0
   52.9360  108.9120   39.0650 C   0  0  0  0  0  0  0  0  0  0  0  0
   52.4580  105.8090   42.6840 C   0  0  0  0  0  0  0  0  0  0  0  0
   53.4870  109.2810   37.7960 C   0  0  3  0  0  0  0  0  0  0  0  0
   51.0720  104.9710   31.1340 C   0  0  0  0  0  0  0  0  0  0  0  0
   52.2650  108.0440   39.7550 C   0  0  0  0  0  0  0  0  0  0  0  0
   52.2090  107.0840   42.1200 C   0  0  0  0  0  0  0  0  0  0  0  0
   54.1280  101.7180   43.0990 C   0  0  0  0  0  0  0  0  0  0  0  0
   53.0950  105.0420   41.6960 C   0  0  3  0  0  0  0  0  0  0  0  0
   52.1620  106.8470   32.1780 C   0  0  0  0  0  0  0  0  0  0  0  0
   52.2060  104.1950   31.3800 C   0  0  0  0  0  0  0  0  0  0  0  0
   52.8750  107.4950   34.6660 N   0  0  0  0  0  0  0  0  0  0  0  0
   52.4250  107.6260   36.0530 C   0  0  0  0  0  0  0  0  0  0  0  0
   55.7270  102.3910   41.3990 C   0  0  0  0  0  0  0  0  0  0  0  0
   54.3210  110.5190   37.6450 C   0  0  0  0  0  0  0  0  0  0  0  0
   52.4220  108.3250   32.3650 C   0  0  0  0  0  0  0  0  0  0  0  0
   52.4500  106.9800   40.7260 C   0  0  3  0  0  0  0  0  0  0  0  0
   52.9750  108.9160   36.5720 C   0  0  3  0  0  0  0  0  0  0  0  0
   52.9940  105.9360   32.8380 C   0  0  0  0  0  0  0  0  0  0  0  0
   53.0700  110.0940   35.6170 C   0  0  3  0  0  0  0  0  0  0  0  0
   53.3410  102.8000   42.7890 C   0  0  0  0  0  0  0  0  0  0  0  0
   51.0970  106.3380   31.4410 C   0  0  0  0  0  0  0  0  0  0  0  0
   52.9440  105.7060   40.4490 C   0  0  0  0  0  0  0  0  0  0  0  0
  1  6  1  0  0  0  0
  2  6  1  0  0  0  0
  3 20  1  0  0  0  0
  3 28  2  0  0  0  0
  4  8  2  0  0  0  0
  4 18  1  0  0  0  0
  4 30  1  0  0  0  0
  5 10  1  0  0  0  0
  5 29  1  0  0  0  0
  6 17  1  0  0  0  0
  6 23  1  0  0  0  0
  7 24  1  0  0  0  0
  7 29  1  0  0  0  0
  8 23  1  0  0  0  0
  9 21  1  0  0  0  0
  9 28  1  0  0  0  0
 10 21  1  0  0  0  0
 10 25  1  0  0  0  0
 11 13  1  0  0  0  0
 11 15  1  0  0  0  0
 12 16  1  0  0  0  0
 12 18  1  0  0  0  0
 13 24  1  0  0  0  0
 13 27  1  0  0  0  0
 14 20  2  0  0  0  0
 14 31  1  0  0  0  0
 15 26  1  0  0  0  0
 16 26  1  0  0  0  0
 17 30  2  0  0  0  0
 18 32  1  0  0  0  0
 19 25  1  0  0  0  0
 19 28  1  0  0  0  0
 19 31  2  0  0  0  0
 21 22  1  0  0  0  0
 22 27  1  0  0  0  0
 26 32  1  0  0  0  0
 27 29  1  0  0  0  0
M  END
>  <Original_Directory>
4phw_A_rec_4wn1_3sj_lig_tt_docked_4_pocket10

>  <Original_Filename>
4phw_A_rec_4wn1_3sj_lig_tt_docked_4_pocket10_gen_sample_11.sdf

>  <Molecule_ID>
sample_11

>  <logS>
-5.7231698

$$$$