/tmp/tmpxc1djanh
  MOE2022           3D

 38 44  0  0  1  0  0  0  0  0999 V2000
  -10.6180   30.3220   12.3380 N   0  0  0  0  0  0  0  0  0  0  0  0
   -0.8610   32.7230   13.6400 C   0  0  0  0  0  0  0  0  0  0  0  0
   -2.7780   31.5920   10.8050 C   0  0  0  0  0  0  0  0  0  0  0  0
   -4.6230   31.8150    7.5130 C   0  0  0  0  0  0  0  0  0  0  0  0
   -6.1680   30.1330    8.3790 C   0  0  0  0  0  0  0  0  0  0  0  0
  -11.7700   32.6630   12.5650 C   0  0  0  0  0  0  0  0  0  0  0  0
   -1.5890   33.6730   15.7280 O   0  0  0  0  0  0  0  0  0  0  0  0
  -11.4880   34.0930   12.0920 C   0  0  3  0  0  0  0  0  0  0  0  0
   -8.4280   28.4350    9.9730 C   0  0  0  0  0  0  0  0  0  0  0  0
  -12.5880   36.3150   11.9210 C   0  0  0  0  0  0  0  0  0  0  0  0
   -3.6320   31.9720    9.6930 N   0  0  0  0  0  0  0  0  0  0  0  0
   -8.0330   31.0180    7.6710 C   0  0  0  0  0  0  0  0  0  0  0  0
  -11.1790   34.1310   10.5860 C   0  0  3  0  0  0  0  0  0  0  0  0
   -2.9700   32.5850    5.9060 C   0  0  0  0  0  0  0  0  0  0  0  0
   -2.5230   32.7600   11.7640 C   0  0  0  0  0  0  0  0  0  0  0  0
   -1.0220   32.8280   12.1080 C   0  0  0  0  0  0  0  0  0  0  0  0
  -10.5830   31.9100   10.6480 C   0  0  3  0  0  0  0  0  0  0  0  0
   -3.5300   31.6060    8.3890 C   0  0  0  0  0  0  0  0  0  0  0  0
   -7.5020   30.0250    8.3880 C   0  0  3  0  0  0  0  0  0  0  0  0
   -9.3370   31.0480    7.9620 C   0  0  0  0  0  0  0  0  0  0  0  0
   -9.9620   30.6630   10.2500 C   0  0  3  0  0  0  0  0  0  0  0  0
   -8.4520   29.4700    9.1020 C   0  0  0  0  0  0  0  0  0  0  0  0
   -5.8450   31.2610    7.7030 C   0  0  0  0  0  0  0  0  0  0  0  0
   -7.0140   31.7840    7.2520 C   0  0  0  0  0  0  0  0  0  0  0  0
   -9.0640   28.6450   11.1890 C   0  0  0  0  0  0  0  0  0  0  0  0
   -9.5000   30.3100    9.0670 N   0  0  0  0  0  0  0  0  0  0  0  0
  -11.6920   36.6170   10.7540 C   0  0  0  0  0  0  0  0  0  0  0  0
  -12.8160   34.8510   12.2490 C   0  0  3  0  0  0  0  0  0  0  0  0
  -10.7550   35.5560   10.2420 C   0  0  0  0  0  0  0  0  0  0  0  0
   -2.3300   31.1910    7.7620 C   0  0  0  0  0  0  0  0  0  0  0  0
   -4.2960   32.5820    6.3840 C   0  0  0  0  0  0  0  0  0  0  0  0
  -13.2600   34.7820   13.6040 O   0  0  0  0  0  0  0  0  0  0  0  0
   -9.8990   29.7730   11.2890 C   0  0  0  0  0  0  0  0  0  0  0  0
   -9.9520   33.2380   10.3550 C   0  0  0  0  0  0  0  0  0  0  0  0
   -1.1770   34.0040   14.3990 C   0  0  0  0  0  0  0  0  0  0  0  0
  -10.6380   31.7630   12.1480 C   0  0  3  0  0  0  0  0  0  0  0  0
   -8.7180   27.9110   12.2280 O   0  0  0  0  0  0  0  0  0  0  0  0
   -2.0760   31.6600    6.4620 C   0  0  0  0  0  0  0  0  0  0  0  0
  1 33  1  0  0  0  0
  1 36  1  0  0  0  0
  2 16  1  0  0  0  0
  2 35  1  0  0  0  0
  3 11  1  0  0  0  0
  3 15  1  0  0  0  0
  4 18  1  0  0  0  0
  4 23  1  0  0  0  0
  4 31  2  0  0  0  0
  5 19  1  0  0  0  0
  5 23  2  0  0  0  0
  6  8  1  0  0  0  0
  6 36  1  0  0  0  0
  7 35  1  0  0  0  0
  8 13  1  0  0  0  0
  8 28  1  0  0  0  0
  9 22  2  0  0  0  0
  9 25  1  0  0  0  0
 10 27  1  0  0  0  0
 10 28  1  0  0  0  0
 11 18  1  0  0  0  0
 12 19  1  0  0  0  0
 12 20  1  0  0  0  0
 12 24  2  0  0  0  0
 13 29  1  0  0  0  0
 13 34  1  0  0  0  0
 14 31  1  0  0  0  0
 14 38  2  0  0  0  0
 15 16  1  0  0  0  0
 17 21  1  0  0  0  0
 17 34  1  0  0  0  0
 17 36  1  0  0  0  0
 18 30  2  0  0  0  0
 19 22  1  0  0  0  0
 20 26  1  0  0  0  0
 21 26  1  0  0  0  0
 21 33  1  0  0  0  0
 22 26  1  0  0  0  0
 23 24  1  0  0  0  0
 25 33  2  0  0  0  0
 25 37  1  0  0  0  0
 27 29  1  0  0  0  0
 28 32  1  0  0  0  0
 30 38  1  0  0  0  0
M  END
>  <Original_Directory>
2w1g_A_rec_5aag_6f2_lig_tt_min_0_pocket10

>  <Original_Filename>
2w1g_A_rec_5aag_6f2_lig_tt_min_0_pocket10_gen_sample_7.sdf

>  <Molecule_ID>
sample_7

>  <logS>
-5.0684099

$$$$