/tmp/tmp0d5gv4uk
  MOE2022           3D

 22 25  0  0  1  0  0  0  0  0999 V2000
   24.1320    8.7210   -2.0170 C   0  0  0  0  0  0  0  0  0  0  0  0
   25.6780    4.4920   -2.4340 C   0  0  0  0  0  0  0  0  0  0  0  0
   27.3050    2.6680   -1.9440 C   0  0  0  0  0  0  0  0  0  0  0  0
   24.1310    7.0000   -3.6570 C   0  0  0  0  0  0  0  0  0  0  0  0
   24.5720    7.4390   -2.4120 C   0  0  0  0  0  0  0  0  0  0  0  0
   26.2280    5.6320   -1.8510 C   0  0  0  0  0  0  0  0  0  0  0  0
   24.6460    4.5850   -3.3460 C   0  0  0  0  0  0  0  0  0  0  0  0
   21.6470   10.6770   -2.3270 O   0  0  0  0  0  0  0  0  0  0  0  0
   28.4640    3.3950   -1.8880 C   0  0  0  0  0  0  0  0  0  0  0  0
   22.1490    9.7020   -3.1090 C   0  0  0  0  0  0  0  0  0  0  0  0
   27.5220    5.6490   -1.3870 C   0  0  0  0  0  0  0  0  0  0  0  0
   21.5670    8.4880   -5.2030 C   0  0  0  0  0  0  0  0  0  0  0  0
   23.8570    7.9510   -4.6570 C   0  0  3  0  0  0  0  0  0  0  0  0
   24.0340    5.6560   -3.9250 C   0  0  0  0  0  0  0  0  0  0  0  0
   26.0600    3.2220   -2.0710 C   0  0  0  0  0  0  0  0  0  0  0  0
   25.4760    6.7640   -1.6220 C   0  0  0  0  0  0  0  0  0  0  0  0
   29.6490    2.8920   -2.3280 O   0  0  0  0  0  0  0  0  0  0  0  0
   23.5390    9.4670   -3.0670 C   0  0  3  0  0  0  0  0  0  0  0  0
   22.7310    7.7710   -5.4460 C   0  0  0  0  0  0  0  0  0  0  0  0
   28.4790    4.6840   -1.4220 C   0  0  0  0  0  0  0  0  0  0  0  0
   21.2960    9.2160   -4.0820 C   0  0  0  0  0  0  0  0  0  0  0  0
   24.1840    9.2760   -4.3030 C   0  0  0  0  0  0  0  0  0  0  0  0
  1  5  1  0  0  0  0
  1 18  1  0  0  0  0
  2  6  1  0  0  0  0
  2  7  2  0  0  0  0
  2 15  1  0  0  0  0
  3  9  1  0  0  0  0
  3 15  2  0  0  0  0
  4  5  1  0  0  0  0
  4 13  1  0  0  0  0
  4 14  2  0  0  0  0
  5 16  2  0  0  0  0
  6 11  2  0  0  0  0
  6 16  1  0  0  0  0
  7 14  1  0  0  0  0
  8 10  1  0  0  0  0
  9 17  1  0  0  0  0
  9 20  2  0  0  0  0
 10 18  1  0  0  0  0
 10 21  2  0  0  0  0
 11 20  1  0  0  0  0
 12 19  2  0  0  0  0
 12 21  1  0  0  0  0
 13 19  1  0  0  0  0
 13 22  1  0  0  0  0
 18 22  1  0  0  0  0
M  END
>  <Original_Directory>
3f96_A_rec_5lz8_7bp_lig_tt_docked_0_pocket10

>  <Original_Filename>
3f96_A_rec_5lz8_7bp_lig_tt_docked_0_pocket10_gen_sample_13.sdf

>  <Molecule_ID>
sample_13

>  <logS>
-3.5290799

$$$$