
  MOE2022           3D

 28 30  0  0  1  0  0  0  0  0999 V2000
   44.1920  -20.4510   27.8320 C   0  0  0  0  0  0  0  0  0  0  0  0
   40.8510  -21.5480   27.7520 O   0  0  0  0  0  0  0  0  0  0  0  0
   40.2140  -19.3040   28.0860 C   0  0  0  0  0  0  0  0  0  0  0  0
   36.0670  -13.7140   27.2160 C   0  0  0  0  0  0  0  0  0  0  0  0
   38.3120  -18.2220   25.3040 O   0  0  0  0  0  0  0  0  0  0  0  0
   34.3830  -14.7140   28.5730 O   0  0  0  0  0  0  0  0  0  0  0  0
   45.7150  -20.5170   29.7730 C   0  0  2  0  0  0  0  0  0  0  0  0
   47.5870  -21.2430   31.1130 O   0  0  0  0  0  0  0  0  0  0  0  0
   37.0820  -13.9150   26.2990 C   0  0  0  0  0  0  0  0  0  0  0  0
   36.3120  -15.9890   27.9600 C   0  0  0  0  0  0  0  0  0  0  0  0
   46.6230  -22.7530   29.6350 O   0  0  0  0  0  0  0  0  0  0  0  0
   37.4720  -16.1350   27.1720 C   0  0  0  0  0  0  0  0  0  0  0  0
   44.3980  -21.2350   30.1290 C   0  0  0  0  0  0  0  0  0  0  0  0
   39.7690  -18.4550   29.0750 C   0  0  0  0  0  0  0  0  0  0  0  0
   39.8410  -19.0820   26.7570 N   0  0  0  0  0  0  0  0  0  0  0  0
   35.6160  -14.7760   27.9820 C   0  0  0  0  0  0  0  0  0  0  0  0
   42.1620  -20.3970   29.1750 N   0  0  0  0  0  0  0  0  0  0  0  0
   41.0820  -20.4990   28.3340 C   0  0  0  0  0  0  0  0  0  0  0  0
   47.9360  -21.1060   28.9310 O   0  0  0  0  0  0  0  0  0  0  0  0
   38.4020  -17.2440   27.4710 C   0  0  0  0  0  0  0  0  0  0  0  0
   38.8400  -17.4530   28.7740 C   0  0  0  0  0  0  0  0  0  0  0  0
   45.5630  -20.0460   28.3360 C   0  0  0  0  0  0  0  0  0  0  0  0
   46.9800  -21.4380   29.8750 C   0  0  0  0  0  0  0  0  0  0  0  0
   37.7540  -15.1380   26.2380 C   0  0  0  0  0  0  0  0  0  0  0  0
   38.8140  -18.2050   26.4160 C   0  0  0  0  0  0  0  0  0  0  0  0
   45.8950  -19.3790   30.6090 O   0  0  0  0  0  0  0  0  0  0  0  0
   35.9070  -16.9730   28.7960 O   0  0  0  0  0  0  0  0  0  0  0  0
   43.4210  -21.1210   28.9440 C   0  0  3  0  0  0  0  0  0  0  0  0
  1 22  2  0  0  0  0
  1 28  1  0  0  0  0
  2 18  2  0  0  0  0
  3 14  2  0  0  0  0
  3 15  1  0  0  0  0
  3 18  1  0  0  0  0
  4  9  2  0  0  0  0
  4 16  1  0  0  0  0
  5 25  2  0  0  0  0
  6 16  1  0  0  0  0
  7 13  1  0  0  0  0
  7 22  1  0  0  0  0
  7 23  1  0  0  0  0
  7 26  1  0  0  0  0
  8 23  1  0  0  0  0
  9 24  1  0  0  0  0
 10 12  1  0  0  0  0
 10 16  2  0  0  0  0
 10 27  1  0  0  0  0
 11 23  1  0  0  0  0
 12 20  1  0  0  0  0
 12 24  2  0  0  0  0
 13 28  1  0  0  0  0
 14 21  1  0  0  0  0
 15 25  1  0  0  0  0
 17 18  1  0  0  0  0
 17 28  1  0  0  0  0
 19 23  1  0  0  0  0
 20 21  2  0  0  0  0
 20 25  1  0  0  0  0
M  END
>  <Original_Directory>
5q0e_A_rec_5exm_5st_lig_tt_docked_1_pocket10

>  <Original_Filename>
5q0e_A_rec_5exm_5st_lig_tt_docked_1_pocket10_gen_sample_10.sdf

>  <Molecule_ID>
sample_10

>  <logS>
-2.3734901

$$$$