/tmp/tmpe6inkqs7
  MOE2022           3D

 21 24  0  0  1  0  0  0  0  0999 V2000
  -21.9070   -2.7710   -9.3610 C   0  0  0  0  0  0  0  0  0  0  0  0
  -21.9330   -0.5310   -5.4520 C   0  0  0  0  0  0  0  0  0  0  0  0
  -20.9080    1.4460   -9.6830 C   0  0  0  0  0  0  0  0  0  0  0  0
  -23.0970    2.9600  -12.0230 F   0  0  0  0  0  0  0  0  0  0  0  0
  -22.1070    0.7570   -3.4130 C   0  0  0  0  0  0  0  0  0  0  0  0
  -22.4400   -0.7420   -6.6820 C   0  0  3  0  0  0  0  0  0  0  0  0
  -21.0940   -1.4220   -4.7920 C   0  0  0  0  0  0  0  0  0  0  0  0
  -21.6140   -1.5260  -11.4600 C   0  0  0  0  0  0  0  0  0  0  0  0
  -21.3230    2.4360  -10.5810 C   0  0  0  0  0  0  0  0  0  0  0  0
  -20.8900   -1.3060   -3.4150 C   0  0  0  0  0  0  0  0  0  0  0  0
  -21.5270    0.2030   -9.8160 C   0  0  0  0  0  0  0  0  0  0  0  0
  -22.2140    2.0560  -11.5710 C   0  0  0  0  0  0  0  0  0  0  0  0
  -22.3060    0.6290   -4.7910 C   0  0  0  0  0  0  0  0  0  0  0  0
  -22.2160   -1.7470   -8.5470 C   0  0  3  0  0  0  0  0  0  0  0  0
  -22.0110   -0.4340   -8.7450 C   0  0  0  0  0  0  0  0  0  0  0  0
  -21.5660   -2.6400  -10.6660 C   0  0  0  0  0  0  0  0  0  0  0  0
  -21.5050   -0.2740   -2.7120 C   0  0  0  0  0  0  0  0  0  0  0  0
  -22.2780    0.2230   -7.6060 C   0  0  0  0  0  0  0  0  0  0  0  0
  -21.8160   -0.2130  -11.0990 C   0  0  0  0  0  0  0  0  0  0  0  0
  -22.5790   -1.9330   -7.2710 C   0  0  0  0  0  0  0  0  0  0  0  0
  -22.3060    0.7330  -11.9880 C   0  0  0  0  0  0  0  0  0  0  0  0
  1 14  1  0  0  0  0
  1 16  2  0  0  0  0
  2  6  1  0  0  0  0
  2  7  1  0  0  0  0
  2 13  2  0  0  0  0
  3  9  2  0  0  0  0
  3 11  1  0  0  0  0
  4 12  1  0  0  0  0
  5 13  1  0  0  0  0
  5 17  2  0  0  0  0
  6 18  1  0  0  0  0
  6 20  1  0  0  0  0
  7 10  2  0  0  0  0
  8 16  1  0  0  0  0
  8 19  2  0  0  0  0
  9 12  1  0  0  0  0
 10 17  1  0  0  0  0
 11 15  2  0  0  0  0
 11 19  1  0  0  0  0
 12 21  2  0  0  0  0
 14 15  1  0  0  0  0
 14 20  1  0  0  0  0
 15 18  1  0  0  0  0
 19 21  1  0  0  0  0
M  END
>  <Original_Directory>
3imw_A_rec_5en3_7lu_lig_tt_docked_7_pocket10

>  <Original_Filename>
3imw_A_rec_5en3_7lu_lig_tt_docked_7_pocket10_gen_sample_5.sdf

>  <Molecule_ID>
sample_5

>  <logS>
-5.7820702

$$$$