/tmp/tmpg4muu272
  MOE2022           3D

 34 38  0  0  1  0  0  0  0  0999 V2000
    6.4270    7.3890   25.3900 F   0  0  0  0  0  0  0  0  0  0  0  0
    6.7520    1.3960   37.0690 C   0  0  0  0  0  0  0  0  0  0  0  0
    7.2080    8.7760   28.5320 C   0  0  0  0  0  0  0  0  0  0  0  0
    1.9620    1.1880   33.4310 C   0  0  0  0  0  0  0  0  0  0  0  0
   10.4520    8.0270   33.2910 C   0  0  0  0  0  0  0  0  0  0  0  0
    5.5580    0.7120   36.7470 C   0  0  0  0  0  0  0  0  0  0  0  0
    5.8550    3.4180   35.9680 C   0  0  0  0  0  0  0  0  0  0  0  0
    4.1940    0.2440   33.6110 C   0  0  0  0  0  0  0  0  0  0  0  0
    8.6060    8.3270   28.0990 C   0  0  3  0  0  0  0  0  0  0  0  0
    8.3590    5.4400   35.2520 C   0  0  0  0  0  0  0  0  0  0  0  0
    4.5960    2.7590   35.8860 C   0  0  0  0  0  0  0  0  0  0  0  0
    6.9980    2.6730   36.4730 C   0  0  0  0  0  0  0  0  0  0  0  0
    3.1550    0.3940   31.4050 O   0  0  0  0  0  0  0  0  0  0  0  0
   11.1120    7.9150   32.0230 C   0  0  0  0  0  0  0  0  0  0  0  0
    4.5950    1.3410   35.9180 C   0  0  0  0  0  0  0  0  0  0  0  0
    9.2060    7.4460   29.1000 N   0  0  0  0  0  0  0  0  0  0  0  0
    5.9130    4.7510   35.4370 C   0  0  0  0  0  0  0  0  0  0  0  0
    6.9260    5.6050   35.1070 C   0  0  0  0  0  0  0  0  0  0  0  0
   11.4700    7.3310   28.8430 O   0  0  0  0  0  0  0  0  0  0  0  0
    1.7130   -1.5520   34.3530 C   0  0  0  0  0  0  0  0  0  0  0  0
    7.0940    8.2600   26.2440 C   0  0  3  0  0  0  0  0  0  0  0  0
    3.6970    0.5380   35.0140 C   0  0  3  0  0  0  0  0  0  0  0  0
    2.2780   -1.2600   32.9620 C   0  0  0  0  0  0  0  0  0  0  0  0
    8.3610    3.0980   36.3000 C   0  0  0  0  0  0  0  0  0  0  0  0
    2.2030    0.9140   34.9300 C   0  0  3  0  0  0  0  0  0  0  0  0
   10.5750    6.9010   31.0250 C   0  0  0  0  0  0  0  0  0  0  0  0
    1.3970   -0.3660   35.2800 C   0  0  0  0  0  0  0  0  0  0  0  0
    6.2220    8.3090   27.4820 C   0  0  0  0  0  0  0  0  0  0  0  0
   10.4730    7.3520   29.5540 C   0  0  0  0  0  0  0  0  0  0  0  0
    8.4180    7.6720   26.7330 C   0  0  0  0  0  0  0  0  0  0  0  0
    9.1740    6.6650   35.1590 C   0  0  0  0  0  0  0  0  0  0  0  0
    8.9360    4.1480   35.6000 C   0  0  0  0  0  0  0  0  0  0  0  0
    2.9020    0.1420   32.7940 C   0  0  2  0  0  0  0  0  0  0  0  0
   10.1470    6.9530   34.1990 C   0  0  0  0  0  0  0  0  0  0  0  0
  1 21  1  0  0  0  0
  2  6  1  0  0  0  0
  2 12  2  0  0  0  0
  3  9  1  0  0  0  0
  3 28  1  0  0  0  0
  4 25  1  0  0  0  0
  4 33  1  0  0  0  0
  5 14  1  0  0  0  0
  5 34  1  0  0  0  0
  6 15  1  0  0  0  0
  7 11  1  0  0  0  0
  7 12  1  0  0  0  0
  7 17  2  0  0  0  0
  8 22  1  0  0  0  0
  8 33  1  0  0  0  0
  9 16  1  0  0  0  0
  9 30  1  0  0  0  0
 10 18  2  0  0  0  0
 10 31  1  0  0  0  0
 10 32  1  0  0  0  0
 11 15  2  0  0  0  0
 12 24  1  0  0  0  0
 13 33  1  0  0  0  0
 14 26  1  0  0  0  0
 15 22  1  0  0  0  0
 16 29  1  0  0  0  0
 17 18  1  0  0  0  0
 19 29  2  0  0  0  0
 20 23  1  0  0  0  0
 20 27  1  0  0  0  0
 21 28  1  0  0  0  0
 21 30  1  0  0  0  0
 22 25  1  0  0  0  0
 23 33  1  0  0  0  0
 24 32  2  0  0  0  0
 25 27  1  0  0  0  0
 26 29  1  0  0  0  0
 31 34  1  0  0  0  0
M  END
>  <Original_Directory>
3vt8_A_rec_2zla_vdb_lig_tt_docked_1_pocket10

>  <Original_Filename>
3vt8_A_rec_2zla_vdb_lig_tt_docked_1_pocket10_gen_sample_12.sdf

>  <Molecule_ID>
sample_12

>  <logS>
-6.4612098

$$$$