/tmp/tmpfxn0ljr5
  MOE2022           3D

 34 39  0  0  1  0  0  0  0  0999 V2000
   15.6940    8.7620    4.0930 C   0  0  3  0  0  0  0  0  0  0  0  0
   11.3040    2.7630   -6.1460 C   0  0  1  0  0  0  0  0  0  0  0  0
   12.4500    4.2010   -4.7640 C   0  0  3  0  0  0  0  0  0  0  0  0
   14.5420    9.5680    3.9040 N   0  0  0  0  0  0  0  0  0  0  0  0
   13.4930    3.8130   -5.8090 C   0  0  3  0  0  0  0  0  0  0  0  0
   13.5700   10.2910    7.5560 C   0  0  0  0  0  0  0  0  0  0  0  0
   15.2480    3.9470   -1.1930 C   0  0  3  0  0  0  0  0  0  0  0  0
   12.6620    3.0190   -6.8150 C   0  0  3  0  0  0  0  0  0  0  0  0
   13.3240    5.5990   -1.1700 C   0  0  3  0  0  0  0  0  0  0  0  0
   14.6460    3.3730   -5.0020 N   0  0  0  0  0  0  0  0  0  0  0  0
   15.6550    8.3970    7.7350 O   0  0  0  0  0  0  0  0  0  0  0  0
   14.3830    7.6990   -1.6090 O   0  0  0  0  0  0  0  0  0  0  0  0
   15.3290    8.8350    6.5060 C   0  0  0  0  0  0  0  0  0  0  0  0
   16.2850    8.1380    2.9730 C   0  0  0  0  0  0  0  0  0  0  0  0
   13.9450   10.1960    5.0280 C   0  0  0  0  0  0  0  0  0  0  0  0
   13.2030    4.3310   -3.4470 C   0  0  3  0  0  0  0  0  0  0  0  0
   15.6130    6.2840   -0.1850 C   0  0  3  0  0  0  0  0  0  0  0  0
   15.6060    8.0680    1.7460 C   0  0  0  0  0  0  0  0  0  0  0  0
   11.1080    1.4100   -6.2620 F   0  0  0  0  0  0  0  0  0  0  0  0
   16.2260    4.9290   -0.5210 C   0  0  0  0  0  0  0  0  0  0  0  0
   16.2160    7.1540    0.6830 C   0  0  0  0  0  0  0  0  0  0  0  0
   15.5380    3.6880   -2.6670 C   0  0  0  0  0  0  0  0  0  0  0  0
   14.2640    9.7330    6.3500 C   0  0  3  0  0  0  0  0  0  0  0  0
   11.5060    3.1310   -4.7790 O   0  0  0  0  0  0  0  0  0  0  0  0
   14.0100    9.6940    2.6090 C   0  0  0  0  0  0  0  0  0  0  0  0
   13.1410   11.0820    4.8740 O   0  0  0  0  0  0  0  0  0  0  0  0
   13.7920    4.1960   -0.7140 C   0  0  0  0  0  0  0  0  0  0  0  0
   14.4050    8.8530    1.5850 C   0  0  0  0  0  0  0  0  0  0  0  0
   14.4340    6.6510   -1.0270 C   0  0  0  0  0  0  0  0  0  0  0  0
   12.8510    5.5650   -2.6270 C   0  0  0  0  0  0  0  0  0  0  0  0
   12.4630    3.7130   -8.0510 O   0  0  0  0  0  0  0  0  0  0  0  0
   15.9980    8.3100    5.4050 C   0  0  0  0  0  0  0  0  0  0  0  0
   10.1950    3.4330   -6.6580 O   0  0  0  0  0  0  0  0  0  0  0  0
   14.7060    4.2610   -3.8190 C   0  0  3  0  0  0  0  0  0  0  0  0
  1  4  1  0  0  0  0
  1 14  1  0  0  0  0
  1 32  1  0  0  0  0
  2  8  1  0  0  0  0
  2 19  1  0  0  0  0
  2 24  1  0  0  0  0
  2 33  1  0  0  0  0
  3  5  1  0  0  0  0
  3 16  1  0  0  0  0
  3 24  1  0  0  0  0
  4 15  1  0  0  0  0
  4 25  1  0  0  0  0
  5  8  1  0  0  0  0
  5 10  1  0  0  0  0
  6 23  1  0  0  0  0
  7 20  1  0  0  0  0
  7 22  1  0  0  0  0
  7 27  1  0  0  0  0
  8 31  1  0  0  0  0
  9 27  1  0  0  0  0
  9 29  1  0  0  0  0
  9 30  1  0  0  0  0
 10 34  1  0  0  0  0
 11 13  1  0  0  0  0
 12 29  2  0  0  0  0
 13 23  1  0  0  0  0
 13 32  2  0  0  0  0
 14 18  2  0  0  0  0
 15 23  1  0  0  0  0
 15 26  2  0  0  0  0
 16 30  1  0  0  0  0
 16 34  1  0  0  0  0
 17 20  1  0  0  0  0
 17 21  1  0  0  0  0
 17 29  1  0  0  0  0
 18 21  1  0  0  0  0
 18 28  1  0  0  0  0
 22 34  1  0  0  0  0
 25 28  2  0  0  0  0
M  END
>  <Original_Directory>
5u2n_A_rec_4kfp_1r7_lig_tt_min_0_pocket10

>  <Original_Filename>
5u2n_A_rec_4kfp_1r7_lig_tt_min_0_pocket10_gen_sample_3.sdf

>  <Molecule_ID>
sample_3

>  <logS>
-2.2278099

$$$$