/tmp/tmpokos4gth
  MOE2022           3D

 26 31  0  0  1  0  0  0  0  0999 V2000
  -23.4380  -25.1320  -32.1590 C   0  0  0  0  0  0  0  0  0  0  0  0
  -18.7830  -24.6440  -33.7930 C   0  0  0  0  0  0  0  0  0  0  0  0
  -21.4400  -22.4860  -27.5880 C   0  0  0  0  0  0  0  0  0  0  0  0
  -22.3630  -23.3510  -25.5030 C   0  0  0  0  0  0  0  0  0  0  0  0
  -20.3520  -22.0760  -28.3880 C   0  0  0  0  0  0  0  0  0  0  0  0
  -24.1290  -22.7160  -31.7560 C   0  0  0  0  0  0  0  0  0  0  0  0
  -21.6360  -23.3820  -31.7050 C   0  0  0  0  0  0  0  0  0  0  0  0
  -23.0420  -23.6530  -32.2920 C   0  0  1  0  0  0  0  0  0  0  0  0
  -20.1570  -24.3840  -33.5760 C   0  0  0  0  0  0  0  0  0  0  0  0
  -19.3350  -26.1530  -35.6170 C   0  0  0  0  0  0  0  0  0  0  0  0
  -20.6590  -25.6750  -35.6170 C   0  0  0  0  0  0  0  0  0  0  0  0
  -20.4740  -23.6650  -32.3460 C   0  0  0  0  0  0  0  0  0  0  0  0
  -23.3050  -25.7520  -33.5570 C   0  0  0  0  0  0  0  0  0  0  0  0
  -21.6140  -22.7380  -30.3680 C   0  0  0  0  0  0  0  0  0  0  0  0
  -20.4450  -22.1750  -29.7850 C   0  0  0  0  0  0  0  0  0  0  0  0
  -22.2100  -24.3590  -24.3840 C   0  0  0  0  0  0  0  0  0  0  0  0
  -21.2670  -22.8800  -26.2350 C   0  0  0  0  0  0  0  0  0  0  0  0
  -24.1710  -22.5750  -30.2430 C   0  0  0  0  0  0  0  0  0  0  0  0
  -23.8040  -23.0130  -27.4010 C   0  0  0  0  0  0  0  0  0  0  0  0
  -22.6180  -24.6900  -34.4320 C   0  0  3  0  0  0  0  0  0  0  0  0
  -23.6530  -23.2310  -26.0270 C   0  0  0  0  0  0  0  0  0  0  0  0
  -23.0100  -23.3520  -33.7990 C   0  0  0  0  0  0  0  0  0  0  0  0
  -21.1240  -24.9310  -34.5110 C   0  0  0  0  0  0  0  0  0  0  0  0
  -22.8060  -22.6610  -29.6020 C   0  0  0  0  0  0  0  0  0  0  0  0
  -22.6830  -22.7370  -28.2010 C   0  0  0  0  0  0  0  0  0  0  0  0
  -18.3940  -25.5940  -34.7520 C   0  0  0  0  0  0  0  0  0  0  0  0
  1  8  1  0  0  0  0
  1 13  1  0  0  0  0
  2  9  2  0  0  0  0
  2 26  1  0  0  0  0
  3  5  1  0  0  0  0
  3 17  2  0  0  0  0
  3 25  1  0  0  0  0
  4 16  1  0  0  0  0
  4 17  1  0  0  0  0
  4 21  2  0  0  0  0
  5 15  2  0  0  0  0
  6  8  1  0  0  0  0
  6 18  1  0  0  0  0
  7  8  1  0  0  0  0
  7 12  2  0  0  0  0
  7 14  1  0  0  0  0
  8 22  1  0  0  0  0
  9 12  1  0  0  0  0
  9 23  1  0  0  0  0
 10 11  1  0  0  0  0
 10 26  2  0  0  0  0
 11 23  2  0  0  0  0
 13 20  1  0  0  0  0
 14 15  1  0  0  0  0
 14 24  2  0  0  0  0
 18 24  1  0  0  0  0
 19 21  1  0  0  0  0
 19 25  2  0  0  0  0
 20 22  1  0  0  0  0
 20 23  1  0  0  0  0
 24 25  1  0  0  0  0
M  END
>  <Original_Directory>
4zs2_A_rec_4zs3_a4f_lig_tt_docked_0_pocket10

>  <Original_Filename>
4zs2_A_rec_4zs3_a4f_lig_tt_docked_0_pocket10_gen_sample_5.sdf

>  <Molecule_ID>
sample_5

>  <logS>
-9.0169601

$$$$